102

C          2.16860        6.36534        0.12637
C          1.82317        7.23744       -0.85120
C          2.78268        7.86215       -1.70569
N          3.58505        8.34664       -2.38739
C          0.49052        7.74669       -0.91769
N         -0.57191        8.22341       -0.89012
C          3.51690        6.35397        0.70903
C          3.35053        6.57429        2.08458
C          4.43015        6.80255        2.91821
C          5.72202        6.62129        2.38462
C          5.87942        6.18992        1.03236
C          4.76946        6.12303        0.17596
C          7.14764        5.80551        0.57561
C          8.26245        5.90028        1.40722
C          8.13151        6.43235        2.68659
C          6.87122        6.79157        3.17295
C          1.91586        6.33295        2.44621
O          1.40611        6.42311        3.54078
C          1.28197        5.83117        1.15999
C          0.40200        4.80119        1.17585
C          0.14424        3.85447        0.09835
S          0.71095        4.14789       -1.52360
C          0.42144        2.56862       -2.05889
C          0.97395        2.11096       -3.31988
O          1.41828        2.81296       -4.21943
O          1.00225        0.74343       -3.32749
C          1.60194        0.16434       -4.48888
C         -0.35059        1.89514       -1.14323
C         -0.47862        2.59001        0.11051
C         -1.02148        1.89100        1.24189
N         -0.20345        1.06457        2.02926
C          1.04836        0.44464        1.62175
C          0.78352       -0.85738        0.85127
C         -0.94995        0.36811        2.98613
O         -0.53636       -0.39909        3.82492
C         -2.33779        0.66668        2.63603
C         -2.30278        1.66103        1.58946
C         -3.70439        1.88472        1.18271
O         -4.07764        2.61443        0.28820
N         -4.43965        0.99673        2.02195
C         -5.87695        0.79456        1.90915
C         -6.66385        2.08415        1.73522
C         -3.58841        0.22028        2.81410
C         -3.97022       -1.00345        3.51216
C         -4.78001       -1.12927        4.58147
C         -5.02459       -2.34743        5.37224
C         -6.24469       -2.87636        5.67180
N         -7.52488       -2.42729        5.15882
O         -7.60392       -1.30232        4.63401
O         -8.47711       -3.20630        5.28739
C         -6.16046       -3.98946        6.59660
C         -4.87508       -4.21168        6.89170
C         -4.05802       -3.24307        6.15107
C         -2.70429       -3.23659        6.19331
C         -1.87273       -2.27403        5.50628
C         -0.59023       -2.63417        5.61751
C         -0.51766       -3.77306        6.48354
N          0.75939       -4.28392        6.94811
O          0.79610       -5.02511        7.93596
O          1.76480       -3.91806        6.31893
C         -1.75101       -4.17565        6.87490
C         -2.04272       -5.25766        7.77830
C         -1.68877       -6.52910        7.53064
C         -1.84344       -7.50766        8.54105
S         -0.65254       -8.74153        8.70524
C         -1.49281       -9.28805       10.10804
N         -2.60341       -8.61198       10.33866
N         -2.79211       -7.57280        9.45358
C         -0.95635      -10.36806       10.85760
C         -1.74334      -11.10880       11.65940
H          4.27574        7.03899        3.96684
H          4.88987        5.85050       -0.86935
H          7.27502        5.39664       -0.42512
H          9.23393        5.56482        1.05190
H          9.01062        6.54500        3.31676
H          6.79607        7.18671        4.18406
H         -0.03500        4.54390        2.14139
H          1.44770       -0.91771       -4.44146
H          2.67969        0.35748       -4.50124
H          1.12869        0.53947       -5.40091
H         -0.70896        0.88807       -1.32124
H          1.60763        0.18539        2.52949
H          1.66203        1.13704        1.04141
H          0.11941       -1.53140        1.40698
H          1.71314       -1.39679        0.65477
H          0.29413       -0.66618       -0.10622
H         -6.24166        0.32027        2.82295
H         -6.06615        0.11105        1.07497
H         -6.31772        2.85705        2.42934
H         -7.72760        1.90601        1.92044
H         -6.56823        2.46918        0.71598
H         -3.44333       -1.88971        3.15350
H         -5.31221       -0.24746        4.94048
H         -7.00562       -4.51675        7.01701
H         -4.54610       -4.95981        7.59284
H         -2.19313       -1.37549        5.03166
H          0.26480       -2.11631        5.20947
H         -2.50401       -4.98205        8.72566
H         -1.17807       -6.80502        6.61216
H          0.10294      -10.59228       10.77675
H         -2.80273      -10.91566       11.75080
H         -1.32256      -11.92727       12.23071
