98

C         -1.19481       -0.81154       -4.26639
C         -1.63908        0.44359       -4.73113
C         -1.94721        0.57906       -6.20703
C         -3.13620       -0.26482       -6.65472
C         -1.74210        1.51129       -3.81158
C         -1.43729        1.27866       -2.45611
C         -1.00191        0.02697       -2.01793
C         -0.87111       -1.01551       -2.92595
C         -2.14459        2.87872       -4.19026
C         -3.41376        3.34586       -4.29266
N         -4.60972        2.57732       -4.04452
O         -5.62031        2.91199       -4.67949
O         -4.58333        1.69269       -3.18069
C         -3.45491        4.75911       -4.58464
C         -2.19481        5.22500       -4.60256
C         -1.29048        4.10809       -4.32376
C          0.04589        4.23071       -4.18660
C          0.99812        3.12489       -4.26333
C          2.22571        3.62066       -4.05317
C          2.10726        5.04287       -3.80992
N          3.21975        5.84975       -3.35571
O          3.24412        7.05474       -3.64263
O          4.09947        5.26379       -2.70943
C          0.83413        5.48158       -3.92100
C          0.38653        6.84105       -3.67675
C         -0.46150        7.21966       -2.70531
C         -0.90614        8.57727       -2.51961
N         -0.78030        9.27002       -1.31473
C         -0.02322        8.85493       -0.15335
C          1.41303        9.35504       -0.21875
C         -1.27714       10.58623       -1.41255
O         -1.27265       11.47486       -0.58556
C         -1.77114       10.64900       -2.79772
C         -1.50075        9.37613       -3.41402
C         -1.96341        9.44878       -4.80871
O         -1.91217        8.57008       -5.64516
N         -2.43998       10.77241       -4.91372
C         -2.93561       11.29310       -6.17445
C         -4.41714       11.03364       -6.38278
C         -2.34562       11.45697       -3.69347
C         -2.74615       12.83063       -3.52405
C         -3.13748       13.40113       -2.36993
C         -3.50588       14.77009       -2.31824
S         -3.15262       15.70587       -0.91282
C         -3.53242       17.26481       -1.65824
C         -4.05122       16.98270       -2.90974
C         -4.15967       15.58660       -3.19648
C         -4.85401       15.35804       -4.44654
O         -5.08908       14.28178       -4.97263
C         -5.28592       16.71861       -4.97124
C         -4.51865       17.70471       -4.08514
O         -4.27009       18.85718       -4.40309
C         -3.25442       18.49125       -0.84504
C         -4.02006       19.68348       -0.83533
C         -5.26097       19.95834       -1.64766
C         -6.55405       19.52819       -0.98440
C         -3.65112       20.74446        0.03532
C         -2.57453       20.64909        0.90952
C         -1.82271       19.49201        0.92199
C         -2.14663       18.44987        0.04798
H         -1.09447       -1.64708       -4.95743
H         -1.05664        0.27646       -6.77234
H         -2.13326        1.62180       -6.47970
H         -2.92002       -1.33639       -6.58178
H         -3.37420       -0.05039       -7.70192
H         -4.02697       -0.05943       -6.05232
H         -1.54646        2.07491       -1.72211
H         -0.76882       -0.13355       -0.96838
H         -0.52410       -1.99069       -2.59193
H         -4.34594        5.32811       -4.79282
H         -1.91263        6.22588       -4.88066
H          0.78350        2.10500       -4.53961
H          3.15846        3.07873       -4.09817
H          0.81279        7.59962       -4.33920
H         -0.87992        6.48364       -2.02081
H         -0.05582        7.76674       -0.05038
H         -0.50308        9.28406        0.73459
H          1.91705        8.99426       -1.12076
H          1.97666        9.01488        0.65446
H          1.44741       10.45046       -0.23788
H         -2.38102       10.80088       -6.98284
H         -2.71459       12.36077       -6.25765
H         -4.62953        9.95984       -6.40425
H         -4.74141       11.46131       -7.33755
H         -5.01753       11.48075       -5.58531
H         -2.71230       13.43554       -4.42560
H         -3.12655       12.84469       -1.43678
H         -6.36143       16.85007       -4.82768
H         -4.99029       16.83598       -6.01555
H         -5.21523       19.48064       -2.60708
H         -5.30997       21.02911       -1.88846
H         -6.57042       18.44687       -0.81887
H         -7.39741       19.78157       -1.63672
H         -6.70183       20.03193       -0.02539
H         -4.22811       21.66892        0.03679
H         -2.33092       21.47273        1.57458
H         -0.98521       19.38774        1.60692
H         -1.50012       17.57482        0.09761
