115

C         -3.12202        4.52340       -3.11773
C         -3.21562        3.11870       -3.65007
O         -3.94460        2.75343       -4.54521
O         -2.31328        2.32307       -2.99999
C         -1.49842        3.12315       -2.13368
C         -2.38733        4.30505       -1.80619
C         -1.65889        5.51561       -1.24008
C         -0.36823        5.88097       -1.96496
C          0.52928        4.70783       -2.34322
C         -0.20132        3.49254       -2.87599
O          0.74257        2.41819       -2.76313
C          1.69289        2.71594       -1.82927
O          2.55553        1.93395       -1.46407
C          1.51290        4.13580       -1.32332
C          1.17716        4.10909        0.14674
C          1.98205        4.70369        1.04539
C          1.79078        4.61693        2.45285
S          2.81350        5.56055        3.48143
C          2.01378        4.87010        4.84143
N          1.06511        4.01805        4.50071
N          0.92078        3.89128        3.12871
C          2.40809        5.27702        6.14447
C          2.27607        4.45591        7.19477
C          2.56023        4.86350        8.53992
N          1.54285        5.17620        9.43971
C          0.12045        5.12984        9.18094
C         -0.47289        3.76834        9.49945
C          2.04751        5.49204       10.71136
O          1.44582        5.74550       11.73374
C          3.50206        5.37313       10.51717
C          3.74251        5.00488        9.14658
C          5.20033        4.87708        8.97096
O          5.79231        4.58001        7.95416
N          5.70062        5.15542       10.26580
C          7.10528        4.97877       10.58252
C          7.94869        6.20713       10.27968
C          4.66690        5.43791       11.16741
C          4.86222        5.76765       12.55237
C          4.00464        5.42663       13.53426
C          4.22667        5.85879       14.90794
C          4.98626        5.10907       15.81504
C          5.53683        3.76688       15.58101
O          5.37474        3.10835       14.57130
S          6.46163        3.20697       16.95099
C          6.09754        4.64710       17.86928
O          6.43192        4.80282       19.02759
C          5.30873        5.60540       17.08247
C          4.89935        6.88124       17.49711
C          4.10804        7.59620       16.59703
C          3.76441        7.09439       15.36149
C          2.91308        8.07649       14.70725
O          2.37215        7.99042       13.62805
O          2.83689        9.13043       15.55761
C          3.53473        8.92886       16.70214
O          3.66298        9.71772       17.61396
C          5.26494        7.43129       18.80074
C          6.38180        8.15169       19.00655
C          6.81346        8.77257       20.31870
C          7.72828        7.89011       21.14997
O          8.65028        7.21421       20.73385
O          7.42946        8.05248       22.47891
C          6.37971        9.02645       22.65635
C          5.69491        9.09941       21.30637
C          4.95494       10.39143       20.96385
C          5.53893       11.66899       21.55328
C          6.11981       11.56791       22.95501
C          6.97708       10.33924       23.17108
O          7.12719       10.26802       24.59686
C          6.09795       10.92439       25.21701
O          5.93450       10.92835       26.42680
C          5.21480       11.62466       24.19266
C          3.84677       10.99006       24.16625
C          2.81056       11.40577       24.90995
H         -4.11959        4.93754       -2.94963
H         -2.56482        5.14098       -3.82733
H         -1.28057        2.53499       -1.23594
H         -3.13725        3.98151       -1.07000
H         -1.42819        5.32328       -0.18626
H         -2.33055        6.38387       -1.24822
H          0.19271        6.61631       -1.37588
H         -0.64738        6.39767       -2.89352
H          1.16549        5.07427       -3.16529
H         -0.40227        3.62426       -3.94597
H          2.47263        4.64863       -1.47417
H          0.32640        3.51768        0.48313
H          2.85289        5.25407        0.69787
H          2.79203        6.28429        6.27822
H          1.88200        3.44780        7.07397
H         -0.07490        5.40771        8.14065
H         -0.36415        5.88356        9.81274
H         -0.01414        2.98342        8.89007
H         -1.54900        3.77154        9.30278
H         -0.31784        3.50683       10.55162
H          7.48311        4.14552        9.97742
H          7.21668        4.68625       11.63155
H          7.92114        6.45410        9.21326
H          8.99346        6.02218       10.55351
H          7.59887        7.08025       10.83844
H          5.75035        6.35156       12.78120
H          3.10906        4.83723       13.35213
H          4.57914        7.18010       19.60512
H          7.05986        8.34624       18.17591
H          7.38622        9.68319       20.09970
H          5.69563        8.60556       23.40248
H          4.95691        8.28861       21.30450
H          3.90830       10.29721       21.26992
H          4.91798       10.51269       19.87300
H          4.79315       12.47087       21.50504
H          6.35551       11.98441       20.88830
H          6.78964       12.43646       23.06313
H          7.97589       10.49456       22.74623
H          5.12456       12.67666       24.49432
H          3.68487       10.11839       23.53581
H          2.88992       12.23794       25.60313
H          1.85577       10.88971       24.87403
