103

C          1.17425        0.45898       -3.79651
C         -0.20344        0.52585       -3.69248
N         -0.94371       -0.46640       -3.14098
C         -0.26270       -1.55512       -2.69212
C          1.12888       -1.59364       -2.79729
N          1.87563       -0.60147       -3.34796
C         -1.06933       -2.65305       -2.11418
C         -0.64076       -3.99797       -2.16453
C         -1.43643       -4.99847       -1.61544
C         -2.67215       -4.69401       -1.00969
C         -3.11521       -3.38665       -0.94303
C         -2.31504       -2.37853       -1.49619
C         -3.28835       -5.91673       -0.54606
C         -2.45281       -7.00877       -0.84770
C         -1.18268       -6.51059       -1.54828
C          0.07323       -6.84523       -0.69457
C          0.09618       -6.24558        0.71385
C         -1.04796       -7.14300       -2.96228
C         -2.19494       -6.85481       -3.93395
C         -2.80200       -8.31616       -0.50991
C         -4.03144       -8.55909        0.11797
C         -4.85225       -7.43820        0.41827
C         -4.48873       -6.12413        0.09882
C         -4.45883       -9.93313        0.49370
S         -5.38919      -10.08822        1.93733
C         -5.57062      -11.79517        1.83437
C         -4.92403      -12.25126        0.70012
C         -4.27455      -11.19066       -0.06120
C         -3.56619      -11.43882       -1.25095
C         -3.53577      -12.80732       -1.61894
S         -2.64439      -13.26236       -3.11511
C         -4.17224      -13.83192       -0.84956
O         -4.10620      -15.14571       -1.26165
C         -4.89487      -13.60744        0.33650
C         -6.33205      -12.49719        2.81995
C         -6.43723      -12.06394        4.08922
C         -7.20042      -12.74570        5.14110
C         -7.30249      -14.13890        5.16920
C         -8.03437      -14.74406        6.17844
C         -8.62460      -13.97188        7.19790
C         -8.49144      -12.59384        7.21095
C         -7.77732      -11.98283        6.17551
C         -9.29054      -14.85209        8.12981
C         -9.12737      -16.18399        7.70696
C         -8.29480      -16.23955        6.40824
C         -6.98196      -17.03926        6.61414
C         -6.02841      -16.49602        7.67897
C         -9.16585      -16.83859        5.26296
C         -8.50387      -16.97153        3.88882
C         -9.67334      -17.23661        8.44792
C        -10.39425      -16.96253        9.63058
C        -10.53088      -15.61086       10.03006
C         -9.98549      -14.55519        9.28652
C        -10.97660      -18.06121       10.43109
C        -12.13490      -17.92850       11.19939
N        -12.66474      -18.92764       11.95002
C        -11.98773      -20.09398       11.90553
C        -10.84093      -20.24827       11.15265
N        -10.31883      -19.25340       10.39704
H          1.75100        1.25988       -4.24323
H         -0.75549        1.38520       -4.05674
H          1.70717       -2.43335       -2.42613
H          0.29436       -4.27350       -2.64508
H         -4.06275       -3.13498       -0.47804
H         -2.67142       -1.35006       -1.44541
H          0.97637       -6.50587       -1.21752
H          0.16782       -7.93481       -0.59449
H          0.10870       -5.15176        0.68652
H          0.99901       -6.56893        1.24227
H         -0.76361       -6.56660        1.30978
H         -0.95738       -8.23332       -2.86716
H         -0.11844       -6.79900       -3.43376
H         -3.16683       -7.14432       -3.52362
H         -2.04899       -7.42164       -4.85979
H         -2.23466       -5.79509       -4.20399
H         -2.10541       -9.11908       -0.72077
H         -5.80791       -7.57036        0.92328
H         -5.14379       -5.29956        0.35609
H         -3.08472      -10.68361       -1.85158
H         -2.85301      -12.11165       -3.77248
H         -3.56879      -15.15380       -2.07718
H         -5.35906      -14.41712        0.87995
H         -6.82428      -13.41402        2.50809
H         -5.95384      -11.14818        4.41739
H         -6.80136      -14.74049        4.42085
H         -8.92407      -11.99167        8.00233
H         -7.67357      -10.89976        6.18001
H         -6.41595      -17.07857        5.67664
H         -7.22564      -18.07763        6.87355
H         -5.66872      -15.49441        7.42420
H         -5.14988      -17.14588        7.75153
H         -6.49490      -16.45802        8.66714
H        -10.07875      -16.24051        5.13660
H         -9.50120      -17.84393        5.55133
H         -8.17847      -16.01332        3.48456
H         -9.22077      -17.37547        3.16583
H         -7.64842      -17.65201        3.91448
H         -9.53876      -18.26096        8.11601
H        -11.05126      -15.35524       10.95071
H        -10.10124      -13.53282        9.62811
H        -12.69671      -16.99902       11.23180
H        -12.39354      -20.90585       12.49836
H        -10.30655      -21.19392       11.12332
