150

C         -4.97975      -13.00313        1.95060
C         -4.31526      -13.41038        3.11088
C         -4.24852      -12.57137        4.22320
C         -4.90196      -11.33983        4.21429
C         -5.61678      -10.95748        3.08153
C         -5.60770      -11.75925        1.91536
C         -6.10505      -10.93280        0.75111
C         -6.15165      -11.37350       -0.53138
C         -6.15185      -12.75690       -0.87186
N         -6.20766      -13.87920       -1.16277
C         -6.19325      -10.51898       -1.66936
N         -6.16583       -9.83137       -2.60515
C         -6.37665       -9.55555        1.31719
C         -6.38175       -9.71189        2.79786
C         -7.14099       -9.06992        3.71804
C         -8.06851       -8.05051        3.36468
N         -8.82294       -7.20544        3.11656
C         -7.13036       -9.41930        5.10201
N         -7.10482       -9.69062        6.23132
C         -6.38537       -8.41858        0.59016
C         -6.30671       -6.96291        0.88200
C         -5.48184       -6.35391        1.85122
C         -4.49971       -7.12886        2.67591
O         -3.87452       -8.03022        2.12752
C         -4.36655       -6.88196        4.12396
C         -5.34104       -6.26205        4.89085
S         -5.01353       -6.29985        6.56245
C         -3.52112       -7.07531        6.30297
C         -3.24325       -7.30662        4.96448
C         -1.93925       -7.81680        4.49924
O         -1.44664       -7.44034        3.43838
C         -1.10250       -8.67703        5.39154
C          0.28065       -8.46396        5.42269
C          1.09518       -9.20058        6.28569
C          0.53254      -10.16152        7.11862
C         -0.83739      -10.40902        7.07014
C         -1.65832       -9.67707        6.20835
C         -5.41596       -4.95616        1.90688
C         -6.02112       -4.17382        0.91404
C         -6.70267       -4.75154       -0.17184
C         -6.92848       -6.13507       -0.09949
C         -6.84842       -3.94749       -1.45252
C         -6.86380       -4.59122       -2.66280
C         -6.11694       -3.97652       -3.76438
C         -5.73908       -4.47372       -4.97494
C         -6.40640       -5.52082       -5.85254
C         -7.40193       -4.81057       -6.82758
N         -6.80016       -3.90179       -7.80569
C         -5.46044       -6.48404       -6.61253
N         -6.11680       -7.54655       -7.38282
C         -4.50784       -3.73142       -5.26198
C         -3.38449       -4.10536       -5.89511
C         -2.11937       -3.26488       -5.86212
C         -2.31160       -1.87760       -5.26351
C         -3.41094       -1.53944       -4.56321
C         -4.42685       -2.54676       -4.41502
C         -5.38761       -2.71171       -3.49874
C         -5.79677       -1.89536       -2.38985
C         -6.55817       -2.48384       -1.44815
C         -1.50799       -3.26269       -7.23483
C         -1.86274       -2.46487       -8.25571
C         -1.23706       -2.55992       -9.58731
C         -0.87245       -1.42945      -10.34753
C         -1.14467       -0.04350       -9.84937
O         -0.92653        0.16303       -8.65560
C         -1.67867        1.02246      -10.73808
C         -1.95448        0.85305      -12.08505
S         -2.47550        2.26513      -12.88225
C         -2.43280        3.14382      -11.43217
C         -2.05361        2.38870      -10.32943
C         -1.98208        2.99336       -8.98325
O         -1.07292        2.75006       -8.19636
C         -2.96031        4.06440       -8.59924
C         -2.51844        5.06413       -7.71975
C         -3.33190        6.15907       -7.42430
C         -4.59813        6.25895       -7.99660
C         -5.07005        5.24298       -8.82749
C         -4.26324        4.13671       -9.11348
C         -0.14304       -1.62522      -11.53136
C          0.11891       -2.91464      -12.01405
C         -0.34643       -4.04311      -11.33391
C         -1.00164       -3.84965      -10.11486
C         -0.05785       -5.42687      -11.76562
C         -0.08211       -5.94318      -13.01065
C          0.58908       -7.21141      -13.41091
C          0.52065       -8.40709      -12.77798
C         -0.23694       -8.57511      -11.58511
N         -0.85360       -8.69360      -10.60761
C          1.11930       -9.58815      -13.30041
N          1.60158      -10.55414      -13.72429
C          1.23173       -6.89754      -14.73440
C          0.71862       -5.65140      -15.20187
C          1.24936       -5.03722      -16.32778
C          2.25029       -5.69947      -17.03865
C          2.71936       -6.94969      -16.61659
C          2.22608       -7.54825      -15.45257
C         -0.34619       -5.20691      -14.26064
C         -1.46265       -4.50778      -14.56885
C         -1.64567       -3.88189      -15.83261
N         -1.77499       -3.34643      -16.85423
C         -2.57583       -4.45363      -13.67776
N         -3.50321       -4.43550      -12.98004
H         -4.92266      -13.66897        1.09867
H         -3.80021      -14.36916        3.12493
H         -3.66819      -12.87482        5.09172
H         -4.79900      -10.69289        5.07846
H         -6.36141       -8.51214       -0.48729
H         -6.27054       -5.81166        4.56760
H         -2.89514       -7.28499        7.16070
H          0.73430       -7.71232        4.77260
H          2.17315       -9.01843        6.31024
H          1.16269      -10.72673        7.80149
H         -1.27399      -11.17175        7.71684
H         -2.72236       -9.89251        6.17957
H         -4.78854       -4.45177        2.63932
H         -5.82440       -3.10431        0.94747
H         -7.50012       -6.61221       -0.89496
H         -7.00611       -5.66028       -2.76519
H         -7.02637       -6.14853       -5.19741
H         -8.13127       -4.23712       -6.24276
H         -7.98417       -5.56116       -7.37478
H         -7.52003       -3.51300       -8.41204
H         -6.14272       -4.39507       -8.40708
H         -4.78096       -6.96232       -5.89876
H         -4.85047       -5.93655       -7.33524
H         -6.78498       -8.04619       -6.80052
H         -6.63473       -7.14544       -8.16277
H         -3.28344       -5.07317       -6.36329
H         -1.40514       -3.78030       -5.20304
H         -1.49554       -1.16661       -5.36498
H         -3.52142       -0.56921       -4.09672
H         -5.54370       -0.84321       -2.36326
H         -6.94751       -1.89720       -0.62203
H         -0.74954       -4.03071       -7.37665
H         -2.61061       -1.68999       -8.10452
H         -1.85722       -0.03191      -12.69504
H         -2.70119        4.19260      -11.45659
H         -1.52511        5.00265       -7.27797
H         -2.96912        6.93846       -6.75874
H         -5.22008        7.12641       -7.78809
H         -6.06545        5.31819       -9.25977
H         -4.66199        3.35259       -9.75226
H          0.26102       -0.77744      -12.07877
H          0.71629       -3.01272      -12.91696
H         -1.32973       -4.72377       -9.55059
H          0.28978       -6.03899      -10.93278
H          0.93138       -4.05510      -16.66252
H          2.67661       -5.23710      -17.92724
H          3.49683       -7.45096      -17.19091
H          2.65898       -8.49273      -15.14136
