108

C         -4.14241       -2.62651       -1.65587
C         -3.15922       -2.56737       -0.73034
C         -2.67232       -3.71680       -0.13651
N         -2.26141       -4.72260        0.33752
C         -2.61644       -1.35007       -0.24991
N         -2.14311       -0.34888        0.14241
C         -4.92461       -3.82880       -2.13489
C         -6.10918       -3.35597       -2.70897
C         -7.03602       -4.12959       -3.40532
C         -6.80405       -5.51962       -3.44904
C         -5.67979       -6.03036       -2.77848
C         -4.72513       -5.19901       -2.12139
S         -5.63602       -7.75618       -2.89000
C         -7.03171       -7.80128       -3.83913
C         -7.56359       -6.56423       -4.08305
Br        -7.77928       -9.38930       -4.49531
C         -6.20346       -1.94476       -2.33749
O         -7.12174       -1.39856       -1.75302
C         -4.82241       -1.46749       -2.22384
C         -4.43529       -0.25424       -2.63561
C         -5.26867        0.64666       -3.38214
O         -4.73963        1.88425       -3.79177
C         -6.56096        0.62027       -3.89078
C         -7.79557       -0.13906       -4.04114
O         -8.09308       -1.31819       -3.92218
N         -8.68473        0.70080       -4.63087
C         -8.11134        1.84305       -5.10790
O         -8.60702        2.64589       -5.87395
C         -6.78122        1.82917       -4.57133
C         -5.66936        2.62398       -4.51673
C         -5.47800        3.94377       -5.02135
C         -4.30183        4.58636       -4.92050
C         -4.09421        5.97892       -5.22420
C         -4.33442        6.89974       -4.22372
S         -3.91601        8.47335       -4.66696
C         -3.37552        7.96414       -6.20616
C         -3.54254        6.59869       -6.43236
C         -3.17299        6.11233       -7.73193
C         -3.70764        4.75424       -8.21392
C         -2.94554        3.43962       -8.05030
C         -2.48576        7.03254       -8.66174
C         -1.72965        6.41866       -9.82658
C         -2.55197        5.73444      -10.91454
C         -2.39458        8.47425       -8.40680
C         -1.94780        9.69704       -9.13321
C         -2.01559       10.83371       -8.33688
S         -2.66087       10.53209       -6.81562
C         -2.84417        8.86446       -7.14835
C         -1.53536        9.96654      -10.49386
C         -1.46817        9.15864      -11.55352
C         -1.16308        9.39692      -12.93601
C         -0.49140       10.39044      -13.50093
C         -0.38712       10.55691      -14.92465
C         -0.01447       11.79409      -15.27689
C          0.21773       12.66460      -14.13632
S          0.23606       11.72432      -12.66295
C          0.32762       14.00255      -14.14496
C          0.26251       14.85208      -15.31278
C          0.14931       16.15450      -15.02029
C          0.10865       16.42477      -13.60124
S          0.45485       14.98391      -12.68502
C         -0.24266       17.60180      -13.06460
C         -0.39833       17.84729      -11.64262
C         -1.52419       18.26874      -11.04722
C         -1.67121       18.42205       -9.62064
C         -2.91126       18.75867       -9.24034
C         -3.85115       18.90241      -10.34124
S         -3.02052       18.62696      -11.87431
C         -5.16487       19.18415      -10.23271
C         -5.89368       19.39727       -8.99293
C         -7.20485       19.61990       -9.15927
C         -7.61299       19.60343      -10.53962
S         -6.26716       19.32677      -11.60737
C         -8.86309       19.76949      -10.97833
H         -7.90180       -3.69312       -3.89644
H         -3.87478       -5.65825       -1.63386
H         -8.45666       -6.39689       -4.67496
H         -3.41067        0.07766       -2.46701
H         -9.56380        0.30900       -4.91906
H         -6.34297        4.44472       -5.45014
H         -3.45912        4.07646       -4.45521
H         -4.71930        6.73609       -3.22777
H         -4.03129        4.84143       -9.25012
H         -4.67867        4.61231       -7.72942
H         -2.31367        3.20429       -8.91514
H         -3.68023        2.62104       -8.00237
H         -2.33906        3.38998       -7.14468
H         -0.91846        5.77026       -9.48555
H         -1.11868        7.21512      -10.21519
H         -2.68925        4.67929      -10.66607
H         -2.03713        5.71796      -11.87840
H         -3.54056        6.18927      -11.05428
H         -1.75043       11.85280       -8.60148
H         -1.30299       11.02271      -10.66809
H         -1.75362        8.13126      -11.49840
H         -1.56797        8.60703      -13.57516
H         -0.66848        9.78746      -15.62473
H          0.03813       12.11810      -16.30476
H          0.26852       14.46417      -16.32057
H          0.05006       16.92809      -15.76683
H         -0.51414       18.42641      -13.72005
H          0.46714       17.59846      -11.03078
H         -0.85584       18.25396       -8.93022
H         -3.18627       18.89384       -8.20442
H         -5.42739       19.37090       -8.01887
H         -7.89829       19.79032       -8.34761
H         -9.68843       19.93364      -10.29461
H         -9.09703       19.73992      -12.03818
