102

C         -8.11282       -2.26286       -3.86628
C         -9.29875       -1.97195       -4.45150
C        -10.37827       -2.90246       -4.50971
N        -11.25505       -3.65997       -4.55424
C         -9.58571       -0.68155       -4.98802
N         -9.80861        0.36688       -5.43151
C         -7.76176       -3.53226       -3.15504
C         -6.68267       -3.26593       -2.30822
C         -6.02835       -4.22446       -1.54642
C         -6.50232       -5.55029       -1.62065
C         -7.60789       -5.82785       -2.44106
C         -8.24785       -4.83290       -3.22798
S         -8.03618       -7.50110       -2.35121
C         -6.77071       -7.83588       -1.28543
C         -6.01272       -6.73843       -0.97949
Br        -6.43658       -9.54247       -0.58922
C         -6.29875       -1.85510       -2.39737
O         -5.64063       -1.24216       -1.58270
C         -6.97879       -1.33095       -3.62472
C         -6.50457       -0.33434       -4.38455
C         -5.29613        0.39444       -4.15097
O         -5.19080        1.75238       -4.47778
C         -4.05221        0.04664       -3.68439
C         -3.26653       -1.06773       -3.23434
O         -3.53446       -2.25636       -3.30616
N         -2.07306       -0.50612       -2.82607
C         -1.96815        0.83952       -3.10253
O         -0.99486        1.55861       -2.96875
C         -3.24785        1.18620       -3.63394
C         -3.92678        2.24982       -4.15944
C         -3.47825        3.57627       -4.38286
C         -4.28002        4.51630       -4.91160
C         -3.84901        5.85963       -5.15124
C         -3.99966        6.80131       -4.15353
S         -3.36508        8.30808       -4.60312
C         -2.87768        7.72414       -6.13426
C         -3.21026        6.39158       -6.34789
C         -2.87882        5.83340       -7.63108
C         -3.40701        4.45823       -8.02723
C         -4.89189        4.51515       -8.37518
C         -2.09175        6.60912       -8.58429
C         -1.57503        5.94553       -9.85493
C         -2.54941        6.02468      -11.01955
C         -1.79342        7.98983       -8.31983
C         -1.11419        9.03586       -9.07305
C         -1.08493       10.24493       -8.41047
S         -1.83468       10.15761       -6.89103
C         -2.21579        8.50469       -7.09939
C         -0.51605        8.93037      -10.37114
C         -1.16372        9.22607      -11.50745
C         -0.57957        9.13308      -12.83524
C         -1.03467        9.80095      -13.90678
C         -0.58753        9.64083      -15.27272
C         -1.40460       10.21790      -16.17172
C         -2.55532       10.86034      -15.56306
S         -2.29342       10.99817      -13.82488
C         -3.72667       11.19040      -16.13625
C         -4.14994       10.99125      -17.50618
C         -5.46763       11.18435      -17.69738
C         -6.18487       11.59947      -16.50429
S         -5.06723       11.79495      -15.18729
C         -7.51977       11.75493      -16.41180
C         -8.22019       12.16900      -15.24145
S         -9.72798       11.47533      -14.71998
C         -9.78965       12.41774      -13.25060
C         -8.70988       13.22718      -13.23750
C         -7.90156       13.13372      -14.34763
O         -6.83512       13.97874      -14.39848
C         -6.92160       14.53506      -13.14240
N         -5.81609       15.37583      -12.78483
O         -5.88749       15.93234      -11.68029
O         -4.88144       15.48209      -13.58897
C         -8.06168       14.16991      -12.41411
H         -5.16132       -3.95722       -0.94866
H         -9.07170       -5.12524       -3.86965
H         -5.15099       -6.76083       -0.32299
H         -7.02837       -0.02240       -5.28461
H         -1.29658       -1.05251       -2.49669
H         -2.44826        3.81928       -4.13055
H         -5.31417        4.28198       -5.15241
H         -4.43667        6.66844       -3.17375
H         -3.22797        3.74250       -7.22128
H         -2.88174        4.02932       -8.88096
H         -5.50391        4.81542       -7.52034
H         -5.23991        3.53200       -8.70698
H         -5.08626        5.23315       -9.17861
H         -1.28540        4.90754       -9.66234
H         -0.62402        6.40221      -10.14403
H         -3.44864        5.43248      -10.83591
H         -2.07752        5.63932      -11.92915
H         -2.87275        7.05068      -11.21246
H         -0.65936       11.18069       -8.74814
H          0.53280        8.64687      -10.40231
H         -2.20877        9.52535      -11.44274
H          0.23707        8.42649      -12.95534
H          0.29580        9.07504      -15.53359
H         -1.25126       10.17696      -17.24024
H         -3.47419       10.67273      -18.28726
H         -5.96249       11.03947      -18.64789
H         -8.12985       11.49609      -17.27322
H        -10.59056       12.29307      -12.53488
H         -8.32256       14.51052      -11.42175
