102

C         -4.60072       -1.86747       -8.04481
C         -4.65386       -3.16828       -7.66128
C         -3.57559       -4.08050       -7.85973
N         -2.70697       -4.83028       -8.02339
C         -5.76251       -3.74205       -6.97061
N         -6.64324       -4.24374       -6.40985
C         -3.41101       -1.17573       -8.63217
C         -3.60445        0.20264       -8.52788
C         -2.69538        1.15774       -8.96879
C         -1.50557        0.69999       -9.57203
C         -1.30546       -0.68257       -9.69988
C         -2.24918       -1.63781       -9.24098
S          0.20070       -1.02150      -10.47680
C          0.56290        0.61933      -10.63243
C         -0.40622        1.44122      -10.12380
Br         2.13609        1.25129      -11.42802
C         -4.91969        0.50745       -7.95664
O         -5.31728        1.62591       -7.70498
C         -5.62021       -0.81389       -7.80577
C         -6.93990       -0.92907       -7.58620
C         -7.88218        0.14854       -7.33126
C         -9.00267        0.02412       -6.60339
C         -9.80532        1.14092       -6.15877
C        -10.48625        0.86449       -5.03529
C        -10.24265       -0.48555       -4.54385
S         -9.54312       -1.45010       -5.83668
C        -10.33527       -0.90383       -3.26779
C        -10.66446       -0.06434       -2.13297
C        -10.47519       -0.65839       -0.94710
C        -10.01841       -2.02647       -1.04631
S         -9.88080       -2.51865       -2.71494
C         -9.75987       -2.80693        0.01401
C         -9.29930       -4.18366       -0.03084
C         -9.95373       -5.23404        0.48673
C         -9.53458       -6.61044        0.35754
C        -10.52027       -7.48888        0.60517
C        -11.78638       -6.85294        0.94664
S        -11.49896       -5.14197        1.29133
C        -13.02172       -7.38914        0.87245
C        -13.36747       -8.70473        0.36312
C        -14.67120       -8.83640        0.06208
C        -15.46095       -7.64768        0.34188
S        -14.50073       -6.47853        1.20907
C        -16.73131       -7.44732       -0.05774
C        -17.51864       -6.25019        0.08066
C        -18.47671       -6.04070        1.06429
C        -19.00507       -6.84672        2.19609
N        -19.00400       -4.79069        0.85983
C        -18.45196       -4.20072       -0.24266
C        -18.89941       -2.84561       -0.65981
C        -17.53670       -5.09297       -0.77911
C        -16.82150       -4.79778       -1.98995
C        -16.38334       -5.69955       -2.88027
C        -15.69648       -5.37745       -4.11932
C        -15.29515       -6.27753       -5.03258
C        -15.44612       -7.73234       -5.08720
C        -16.59061       -8.42213       -4.88709
C        -16.65232       -9.84949       -4.91834
N        -16.67853      -11.00579       -4.88625
C        -17.85750       -7.78082       -4.75235
N        -18.90302       -7.27873       -4.70418
C        -14.24374       -8.25986       -5.78384
C        -13.63007       -7.18985       -6.44973
C        -14.27205       -5.90924       -6.06821
O        -13.99678       -4.80691       -6.49098
C        -12.57743       -7.35237       -7.34442
C        -12.12767       -8.67221       -7.60030
C        -12.70277       -9.73222       -6.88210
C        -13.73954       -9.54315       -5.93949
S        -12.00932      -11.24887       -7.33173
C        -11.03140      -10.52386       -8.49833
C        -11.14354       -9.15881       -8.53100
Br        -9.91245      -11.50180       -9.63874
H         -2.91172        2.21786       -8.86659
H         -2.03528       -2.68844       -9.39808
H         -0.35130        2.52322      -10.13799
H         -7.39722       -1.91309       -7.56546
H         -7.60470        1.14646       -7.66293
H         -9.78325        2.11118       -6.63478
H        -11.09646        1.58714       -4.51321
H        -10.97104        0.96704       -2.23129
H        -10.62458       -0.16303        0.00181
H         -9.92052       -2.41040        1.01444
H         -8.37955       -4.34823       -0.58903
H         -8.53327       -6.88512        0.05425
H        -10.39145       -8.55919        0.52818
H        -12.63228       -9.47490        0.16918
H        -15.08991       -9.72395       -0.39330
H        -17.21788       -8.24278       -0.61622
H        -18.22813       -7.43643        2.68630
H        -19.80056       -7.51263        1.84617
H        -19.44828       -6.18927        2.95636
H        -19.72298       -4.37197        1.43442
H        -19.77189       -2.52113       -0.08114
H        -19.18103       -2.83341       -1.71678
H        -18.10052       -2.11611       -0.49668
H        -16.68281       -3.74261       -2.21781
H        -16.54023       -6.74496       -2.65126
H        -15.41661       -4.33126       -4.25762
H        -12.14669       -6.49610       -7.85731
H        -14.13586      -10.40417       -5.41416
H        -10.58198       -8.52535       -9.20700
