74

C          0.76746        3.00017       -4.70201
C         -0.25131        2.18052       -5.05041
C         -1.26792        2.53725       -5.96772
N         -2.11129        2.83904       -6.71302
C         -0.40135        0.88613       -4.46505
N         -0.53167       -0.16323       -3.98839
N          1.07231        4.28219       -5.15936
C          0.38839        4.98698       -6.22836
C          2.11613        4.93938       -4.49963
O          2.52162        6.07117       -4.72437
C          2.67416        4.05512       -3.44378
S          1.93383        2.50325       -3.48258
C          3.65296        4.45827       -2.61716
C          4.24911        3.65096       -1.56565
C          5.48595        3.78359       -1.06465
C          6.50312        4.74084       -1.42636
C          7.73843        4.36252       -1.06434
C          7.77543        3.08311       -0.37675
S          6.13130        2.59752        0.04963
C          8.85516        2.29758       -0.21127
C         10.19349        2.55044       -0.72010
C         10.92856        1.43340       -0.84213
C         10.22044        0.24157       -0.41598
S          8.78384        0.67624        0.47413
C         10.57451       -1.01019       -0.74168
C          9.82921       -2.15349       -0.36877
S         10.09757       -3.06644        1.07032
C          8.90791       -4.28924        0.67123
C          8.38187       -3.94748       -0.53074
C          8.86279       -2.77468       -1.07594
O          8.36021       -2.39778       -2.28670
C          7.52797       -3.47269       -2.51900
N          6.89398       -3.46363       -3.79683
O          6.97922       -4.50732       -4.45623
O          6.30139       -2.43010       -4.12851
C          7.50117       -4.44647       -1.51393
C          8.63335       -5.42530        1.51473
S          9.85052       -6.12860        2.48931
C          8.83533       -7.40885        3.00188
C          9.40372       -8.49453        3.77915
O          8.99012       -9.64511        3.80011
O         10.47343       -8.10609        4.52300
C          7.53883       -7.23099        2.54408
C          7.43703       -6.10625        1.66164
C          6.43780       -8.09110        2.88150
C          5.56045       -7.91513        3.88516
C          5.57516       -6.79748        4.86145
O          6.11747       -5.71875        4.67836
N          4.91375       -7.20218        6.02178
C          4.15337       -8.36614        5.92693
C          3.33644       -8.92834        6.85555
C          3.12594       -8.37274        8.14943
N          2.96216       -7.91892        9.20281
C          2.58595      -10.11713        6.58180
N          1.96746      -11.06351        6.37776
S          4.36031       -9.08178        4.32672
C          5.13670       -6.42365        7.22504
H          0.32153        4.35095       -7.11611
H          0.93043        5.89187       -6.52193
H         -0.60590        5.28911       -5.88515
H          4.05168        5.46394       -2.74155
H          3.64582        2.81818       -1.20444
H          6.29393        5.65014       -1.96992
H          8.62535        4.93207       -1.30012
H         10.53820        3.52421       -1.03848
H         11.92601        1.40937       -1.25996
H         11.45100       -1.17359       -1.36239
H          6.94890       -5.37481       -1.53243
H         10.67153       -7.15472        4.40580
H          6.51959       -5.81046        1.16618
H          6.36788       -9.00526        2.29305
H          5.92758       -5.68263        7.07129
H          5.48213       -7.08721        8.02406
H          4.22248       -5.89771        7.50836
