88

C         -1.84372       13.84013       -4.26222
C         -1.34328       15.08381       -4.06919
C         -1.49174       16.12989       -5.02189
N         -1.60992       16.98576       -5.80013
C         -0.68841       15.47441       -2.86466
N         -0.14746       15.79897       -1.88958
C         -2.67413       13.38734       -5.42206
C         -3.35309       12.22716       -5.04463
C         -4.20852       11.51275       -5.87513
C         -4.39901       11.99418       -7.18750
C         -3.72614       13.16189       -7.58055
C         -2.85123       13.87050       -6.71426
S         -4.11230       13.57591       -9.21470
C         -5.12461       12.23577       -9.38459
C         -5.19819       11.46355       -8.25708
Br        -6.05405       11.84390      -10.96302
C         -3.02156       11.85870       -3.66388
O         -3.67861       11.09521       -2.98969
C         -1.85171       12.72362       -3.28408
C         -0.94801       12.42078       -2.33517
C         -0.90930       11.24303       -1.46750
N         -0.30600       11.39321       -0.27928
C         -0.27834       10.30229        0.50864
C         -0.82133        9.09030        0.15102
C         -1.38114        9.03559       -1.10630
N         -1.38703       10.09212       -1.93877
C         -1.99929        7.80294       -1.60699
C         -2.57453        7.71935       -2.81798
C         -3.15368        6.50833       -3.34099
C         -2.76827        5.90273       -4.48510
C         -1.74932        6.27901       -5.44466
C         -1.52132        5.46673       -6.49522
C         -2.25953        4.21972       -6.68344
C         -3.21256        3.81123       -5.82069
C         -3.52596        4.64777       -4.67347
C         -4.39627        4.47566       -3.64834
C         -4.23016        5.66946       -2.79178
C         -4.97789        6.00175       -1.72843
C         -5.27463        3.31886       -3.43641
N         -5.57401        2.99543       -2.16400
C         -6.36273        1.92686       -1.98111
C         -6.85308        1.16844       -3.01182
C         -6.48235        1.56362       -4.27949
N         -5.71492        2.64192       -4.51284
C         -6.92734        0.86503       -5.48862
C         -7.15839       -0.45599       -5.54444
C         -7.60133       -1.14037       -6.73199
C         -6.98024       -1.22089       -7.91569
C         -5.70743       -0.71100       -8.44616
C         -4.52052       -0.63054       -7.79337
C         -3.32767       -0.15038       -8.40533
N         -2.35910        0.25631       -8.89862
C         -4.33561       -1.14220       -6.47347
N         -4.15096       -1.60288       -5.42445
C         -5.88835       -0.60435       -9.92693
C         -7.05638       -1.29291      -10.27498
C         -7.77478       -1.74012       -9.07271
O         -8.82043       -2.35501       -9.04735
C         -7.47114       -1.51316      -11.58267
C         -6.64519       -1.02601      -12.61929
C         -5.50076       -0.28778      -12.27922
C         -5.12035       -0.03853      -10.93650
S         -4.64898        0.22537      -13.69239
C         -5.73563       -0.56628      -14.71159
C         -6.76558       -1.17248      -14.04376
Br        -5.54388       -0.61223      -16.57399
H         -4.69634       10.60763       -5.52224
H         -2.34596       14.75131       -7.09410
H         -5.79145       10.56012       -8.17908
H         -0.09100       13.05677       -2.14611
H          0.20467       10.43842        1.47202
H         -0.79906        8.24156        0.82043
H         -1.97129        6.93654       -0.95321
H         -2.60632        8.58179       -3.48066
H         -1.18481        7.19356       -5.30337
H         -0.76231        5.71234       -7.23169
H         -2.00275        3.61174       -7.54655
H         -3.73269        2.87581       -5.97250
H         -4.81869        6.92722       -1.18472
H         -5.78907        5.37533       -1.37553
H         -6.59676        1.69094       -0.94708
H         -7.49218        0.31877       -2.82195
H         -7.03917        1.50046       -6.36381
H         -7.04272       -1.08861       -4.66615
H         -8.58072       -1.61015       -6.61583
H         -8.38093       -2.06991      -11.79097
H         -4.23026        0.55044      -10.74832
H         -7.56206       -1.72138      -14.53187
