97

C         -5.88721        9.25490       -2.05209
C         -4.82031       10.00893       -1.70323
C         -4.47489       11.20482       -2.38708
N         -4.15998       12.16757       -2.95215
C         -3.93790        9.62288       -0.64459
N         -3.21244        9.26219        0.18702
C         -6.89345        9.47922       -3.15914
C         -7.94675        8.11570       -3.02499
C         -8.90841        7.41580       -4.34914
C         -8.83085        8.24899       -5.96062
C         -7.81705       10.03055       -5.96755
C         -6.81803       10.46126       -4.54351
S         -7.14066       10.51589       -8.14564
C         -8.11570        8.58323       -8.96752
C         -8.90480        7.54025       -7.77751
Br        -8.67282        8.72263      -10.79193
C         -7.68178        7.65861       -1.67174
O         -8.44683        7.21522       -0.85375
C         -6.26601        7.97965       -1.41494
C         -5.52643        6.91524       -1.06822
N         -5.90424        5.66062       -0.61522
C         -6.72622        4.49164       -1.03303
S         -7.30535        2.42387        0.23334
C         -9.00210        1.94744       -0.82720
N         -9.75600        0.81401       -0.44532
O         -9.57292       -0.20915       -1.11008
O        -10.62255        1.00242        0.41372
C         -9.17971        2.86674       -1.99274
C         -7.85507        4.51867       -2.36387
C         -7.37166        5.32229       -3.64231
C         -6.32191        6.14753       -3.88254
C         -6.36904        7.25501       -4.90975
C         -7.17785        8.41434       -5.15329
C         -7.37574        8.62364       -7.02292
C         -8.98741        9.53296       -7.36882
C        -10.22594        9.79487       -6.13293
S         -9.13428        9.66323       -4.30535
C        -11.39342        9.05682       -6.34121
C        -12.09278        8.93028       -7.61983
C        -13.09101        8.02483       -7.66408
C        -13.29575        7.27053       -6.44141
S        -12.03408        7.73622       -5.32323
C        -14.29697        6.37099       -6.27181
C        -14.57664        5.41212       -5.19939
C        -15.11435        5.60580       -3.97336
C        -15.82615        6.87957       -3.62027
C        -15.18563        4.51393       -2.90619
N        -13.93763        4.32292       -2.15545
C        -12.75870        3.79202       -2.64912
C        -12.11381        4.18786       -3.75540
C        -10.78676        3.88152       -4.19502
C         -9.70274        4.19969       -3.46089
C         -9.85876        4.85714       -1.69720
C        -10.67309        5.84258       -1.24751
C        -10.68084        6.30909        0.10110
N        -10.74656        6.79872        1.15283
C        -11.54500        6.64945       -2.02764
N        -12.29557        7.42838       -2.44617
C         -8.49303        4.02291       -0.64223
C         -7.29758        2.86017       -1.87852
C         -8.13193        2.98803       -3.67014
O         -7.85382        2.45252       -4.72638
C         -5.64561        2.65881       -1.51451
C         -5.05454        3.35148       -0.00159
C         -6.05276        4.18877        1.15652
C         -7.78031        4.61957        0.87580
S         -4.96272        4.74553        2.38175
C         -3.57356        4.40475        1.45782
C         -3.69865        3.65397        0.31772
Br        -1.88976        5.10692        1.94220
H         -9.51708        6.53411       -4.29500
H         -6.01801       11.16942       -4.74603
H         -9.48123        6.65353       -7.99889
H         -4.44724        6.99250       -0.95647
H         -6.26362        5.97496        0.29605
H         -9.92654        2.40126       -2.67222
H         -7.99137        5.22921       -4.53523
H         -5.43909        6.15201       -3.26006
H         -5.62051        7.04350       -5.68200
H         -6.46421        8.28525       -7.55575
H         -9.46291       10.00285       -8.25554
H        -11.82904        9.54199       -8.46900
H        -13.69319        7.83437       -8.54326
H        -15.02160        6.25343       -7.07810
H        -14.26238        4.39423       -5.44861
H        -16.11921        7.43507       -4.51686
H        -15.21233        7.51654       -2.98314
H        -16.76314        6.65374       -3.09570
H        -15.50668        3.55319       -3.32331
H        -15.95242        4.78086       -2.16539
H        -14.13450        4.00786       -1.20365
H        -12.30283        3.10059       -1.93981
H        -12.53292        4.96612       -4.35948
H        -10.69212        3.26402       -5.08551
H         -4.92880        2.38230       -2.28086
H         -8.22768        5.37254        1.52284
H         -2.88480        3.43544       -0.36367
