102

C        -11.78260      -11.94826       -8.31409
C        -12.60425      -13.06619       -8.19600
F        -12.93128      -13.75790       -9.29609
C        -13.07298      -13.46981       -6.95424
F        -13.85575      -14.55187       -6.84672
C        -12.72612      -12.76625       -5.80667
C        -11.88882      -11.64517       -5.89738
C        -11.40934      -11.21995       -7.17298
C        -10.55043      -10.10204       -7.27185
C        -10.16299       -9.42207       -6.12208
C        -10.61566       -9.89947       -4.88619
C        -11.48605      -10.96702       -4.74372
C         -9.92920       -9.21139       -3.78823
O        -10.10923       -9.40084       -2.60167
C         -8.92199       -8.30368       -4.43251
C         -9.21822       -8.28918       -5.87914
C         -8.86574       -7.34518       -6.78441
C         -9.45159       -7.28417       -8.08316
N         -9.96270       -7.22731       -9.12298
C         -7.96110       -6.28723       -6.48498
N         -7.21557       -5.42907       -6.25274
C         -7.94665       -7.76620       -3.68234
N         -7.76802       -7.92906       -2.32067
C         -6.80096       -7.43276       -1.50302
S         -6.33908       -8.36956       -0.12695
C         -5.16423       -7.24563        0.34001
N         -4.34667       -7.46336        1.50227
O         -3.52215       -6.57894        1.77030
O         -4.51452       -8.50411        2.15431
C         -5.13064       -6.14368       -0.48006
C         -6.09708       -6.23507       -1.53722
C         -6.36851       -5.16395       -2.45268
C         -5.46291       -4.25478       -2.84274
C         -5.78401       -3.09840       -3.65399
C         -4.90755       -2.16322       -4.04279
C         -5.27410       -0.94407       -4.72657
C         -4.24975       -0.10150       -4.90713
C         -2.98092       -0.60106       -4.40257
S         -3.18949       -2.22983       -3.75860
C         -1.81814        0.06089       -4.36580
C         -1.59770        1.43085       -4.78724
C         -0.37299        1.89319       -4.50878
C          0.46911        0.92861       -3.84107
S         -0.32454       -0.62241       -3.73110
C          1.69502        1.07397       -3.32358
C          2.44459        2.28333       -3.29491
C          3.76610        2.47424       -3.70836
C          4.45209        1.48594       -4.48605
N          4.93816        0.69971       -5.18662
C          4.20016        3.75746       -3.34404
C          3.21298        4.55239       -2.87830
S          1.78131        3.74590       -2.60773
S          3.66489        6.16273       -2.66484
C          5.23769        5.74652       -3.10431
C          5.41096        4.43665       -3.37014
C          6.75791        4.05524       -3.49746
C          7.25705        2.71411       -3.54360
N          7.65298        1.62519       -3.52576
C          7.59923        5.17982       -3.41502
S          6.63180        6.63948       -3.25784
C          9.03008        5.24030       -3.52185
C          9.85245        6.13622       -2.95022
C         11.26046        6.22122       -3.45901
O         11.86605        5.39839       -4.11086
C         11.75109        7.54994       -3.04909
C         13.01692        8.05931       -3.28526
C         13.33055        9.31419       -2.74953
C         12.32964       10.06010       -2.05553
C         12.66290       11.30310       -1.49902
C         13.96285       11.78707       -1.59984
C         14.93583       11.06010       -2.27077
C         14.62754        9.83578       -2.85563
F         16.18983       11.52512       -2.34827
F         14.27142       12.95668       -1.02375
C         11.03829        9.52775       -1.88179
C         10.76755        8.24065       -2.32304
C          9.66367        7.27866       -2.04929
C          8.94711        7.28988       -0.89307
C          8.50141        6.06530       -0.31131
N          8.21310        5.06093        0.18816
C          8.68918        8.47182       -0.15114
N          8.44204        9.45343        0.41300
H        -11.43233      -11.66811       -9.30465
H        -13.10219      -13.11604       -4.84879
H        -10.16985       -9.82526       -8.25128
H        -11.79478      -11.28633       -3.75158
H         -7.15261       -7.17678       -4.12920
H         -8.38853       -8.64179       -1.91506
H         -4.47716       -5.29477       -0.30628
H         -7.39101       -5.07426       -2.81344
H         -4.43621       -4.34861       -2.49684
H         -6.83500       -2.96575       -3.90359
H         -6.28974       -0.72722       -5.02443
H         -4.36161        0.86573       -5.37105
H         -2.35703        2.03503       -5.26240
H         -0.05414        2.89695       -4.75398
H          2.18870        0.19863       -2.89998
H          9.47982        4.49733       -4.18487
H         13.74903        7.46426       -3.82567
H         11.93220       11.89365       -0.95154
H         15.41732        9.28951       -3.36453
H         10.29721       10.11963       -1.35291
