119

C         -3.83629       -1.93743        1.84249
C         -2.54860       -2.32947        1.69586
C         -2.13744       -3.68089        1.83802
N         -1.80434       -4.78317        1.96063
C         -1.51234       -1.41862        1.31583
N         -0.67777       -0.67945        1.01111
C         -5.02295       -2.81405        2.07513
C         -6.16694       -2.10484        1.69481
C         -7.46193       -2.59547        1.81128
C         -7.62877       -3.88296        2.36831
C         -6.48681       -4.60470        2.75166
C         -5.17133       -4.08754        2.61394
S         -6.92019       -6.14799        3.40154
C         -8.56803       -5.84615        3.19605
C         -8.83161       -4.61903        2.64963
Br        -9.90387       -7.07016        3.67298
C         -5.81178       -0.74845        1.24740
O         -6.54933        0.01816        0.66744
C         -4.36989       -0.57790        1.62413
C         -3.80976        0.60309        1.93686
C         -4.49527        1.89945        1.90768
C         -4.48162        2.67790        0.74336
C         -5.15844        3.89297        0.73869
C         -5.79854        4.35248        1.90834
C         -5.80207        3.59565        3.07060
C         -5.15070        2.36054        3.06501
C         -6.37032        5.65144        1.65695
C         -6.12299        6.02564        0.32260
C         -5.33349        4.91559       -0.41112
C         -3.93790        5.40929       -0.88151
C         -3.92305        6.52599       -1.92278
C         -6.22843        4.33784       -1.54187
C         -5.62429        3.22521       -2.39317
C         -6.59543        7.24326       -0.16664
C         -7.26866        8.12522        0.69560
C         -7.49701        7.72540        2.02769
C         -7.06200        6.48907        2.51085
C         -7.69885        9.43926        0.17605
C         -8.34558       10.36417        0.90437
C         -8.74151       11.60713        0.34470
S         -7.66989       12.95203        0.45103
C         -8.76800       14.03822       -0.32416
C         -9.93648       13.37923       -0.64582
C         -9.93287       11.99081       -0.23468
C        -11.01886       11.12173       -0.40187
C        -12.10393       11.75538       -1.03440
F        -13.20892       11.02461       -1.25572
C        -12.10135       13.11839       -1.45447
F        -13.20218       13.59881       -2.05568
C        -11.01886       14.00118       -1.27847
C         -8.36834       15.39512       -0.48376
C         -7.69969       15.77498       -1.58294
C         -7.15629       17.11022       -1.75386
C         -6.07399       17.42431       -2.48548
C         -5.52339       18.75473       -2.59798
C         -4.35380       18.80370       -3.25297
C         -3.87521       17.50697       -3.70373
S         -5.08555       16.27217       -3.34836
C         -2.68018       17.24075       -4.26779
C         -1.61779       18.19228       -4.54035
C         -0.48895       17.63493       -5.00403
C         -0.56498       16.19757       -5.14106
S         -2.16350       15.62254       -4.73794
C          0.45197       15.41567       -5.53653
C          0.41086       13.97688       -5.67214
C          0.65709       13.32522       -6.83472
C          0.45468       11.91966       -6.57446
C          0.51964       10.85442       -7.39442
C          0.21251        9.56908       -6.79730
C          0.16202        8.33227       -7.33283
C         -0.24050        7.35814       -6.29979
C         -0.38941        8.00904       -5.12491
C         -0.14009        9.40478       -5.37920
C         -0.19431       10.46615       -4.55704
C          0.09495       11.75162       -5.15955
C          0.08312       12.98486       -4.63268
C         -0.37197        5.92848       -6.47172
C         -1.16126        5.14101       -5.73054
H         -8.31331       -1.98792        1.51628
H         -4.33581       -4.68599        2.96030
H         -9.83053       -4.24690        2.45446
H         -2.80392        0.67497        2.34038
H         -3.95485        2.32889       -0.13754
H         -6.29974        3.94611        3.96871
H         -5.15256        1.76344        3.97384
H         -3.37324        4.56515       -1.29699
H         -3.35478        5.75515       -0.01686
H         -4.52994        6.28142       -2.79853
H         -2.89858        6.70544       -2.26491
H         -4.27095        7.47336       -1.50373
H         -6.52340        5.14400       -2.22546
H         -7.16640        3.95845       -1.11246
H         -4.73371        3.56279       -2.92994
H         -6.35470        2.89515       -3.13953
H         -5.36687        2.34402       -1.80319
H         -6.43849        7.51053       -1.20729
H         -8.02102        8.36775        2.72746
H         -7.26250        6.21242        3.53996
H         -7.44932        9.64578       -0.86431
H         -8.60343       10.21161        1.94451
H        -11.05908       10.08487       -0.09656
H        -11.05449       15.02884       -1.60990
H         -8.53955       16.07598        0.34507
H         -7.50348       15.05003       -2.37190
H         -7.66259       17.90103       -1.20345
H         -6.00854       19.62206       -2.17132
H         -3.80726       19.72200       -3.41107
H         -1.71827       19.25463       -4.37077
H          0.40369       18.19516       -5.24691
H          1.40910       15.86733       -5.78728
H          0.90581       13.75499       -7.79067
H          0.76262       10.93080       -8.44539
H          0.35742        8.07222       -8.36036
H         -0.64145        7.58957       -4.16476
H         -0.45519       10.39203       -3.50975
H         -0.15562       13.24548       -3.61288
H          0.20747        5.48615       -7.27909
H         -1.78342        5.53360       -4.93210
H         -1.21662        4.07367       -5.91940
