92

C          1.25364        1.85763        1.30941
C          0.14635        1.19180        1.69411
C          0.03483       -0.26102        2.01045
O          0.95699       -0.99142        2.33038
O         -1.26435       -0.63937        1.88274
C         -1.58398       -2.01168        2.13443
C         -1.04476        1.96655        1.84653
N         -1.98786        2.63202        1.96364
C          2.56191        1.34776        1.06563
C          3.01340        0.13039        0.55086
C          4.41917        0.10154        0.43321
C          4.98654        1.29797        0.80378
S          3.91177        2.43597        1.34735
C          6.37443        1.23907        0.56076
C          6.68065        0.00447        0.03635
C          5.46659       -0.80621       -0.03031
C          5.35414       -2.09843       -0.39125
C          6.48103       -2.85423       -0.81371
N          7.40589       -3.46173       -1.16298
C          4.11022       -2.78315       -0.34826
N          3.10026       -3.35225       -0.32219
C          8.04660       -0.10085       -0.29326
C          8.72956        1.06907        0.03336
S          7.66463        2.27084        0.70448
C         10.13849        1.31392       -0.15958
C         10.95043        0.79149       -1.17046
C         12.28311        1.23282       -1.02873
C         12.42477        2.03288        0.08063
S         11.03971        2.30313        0.94518
C         13.76869        2.42760        0.19375
C         14.48487        1.89168       -0.84753
C         13.58582        1.09144       -1.68562
C         13.88202        0.38444       -2.79275
C         15.21069        0.31980       -3.29794
N         16.29921        0.27122       -3.69746
C         12.88898       -0.33529       -3.50592
N         12.06849       -0.91947       -4.09130
C         15.83972        2.28749       -0.78572
C         16.10387        3.11126        0.32422
S         14.63757        3.33177        1.26809
C         17.34461        3.72038        0.75454
C         18.50083        3.07773        0.48122
C         19.78588        3.59519        0.88098
C         19.92212        4.86499        1.60627
C         18.90526        5.64574        1.96150
S         17.25404        5.27598        1.59173
C         21.29638        5.05434        1.83927
C         22.00002        3.99394        1.32346
C         23.38967        4.13379        1.48401
C         23.67615        5.31157        2.15894
S         22.25445        6.22283        2.55025
C         21.04325        3.07259        0.73995
C         21.36837        1.81849        0.09051
C         22.47340        1.09705        0.33537
C         22.76741       -0.15776       -0.31855
C         23.98244       -0.71371       -0.45612
C         24.34480       -1.97747       -1.12967
C         23.61180       -3.11802       -1.16248
C         24.10917       -4.33873       -1.69896
N         24.51707       -5.33261       -2.13486
C         22.31529       -3.21235       -0.57589
N         21.26014       -3.28458       -0.09802
C         25.77576       -1.85052       -1.52968
C         26.32478       -0.75577       -0.85958
C         25.27954       -0.01853       -0.12862
O         25.47055        0.96992        0.54851
C         27.66658       -0.39746       -0.93592
C         28.51056       -1.17629       -1.76123
C         27.94660       -2.23223       -2.49433
C         26.57531       -2.57756       -2.40378
S         29.13416       -3.01333       -3.47690
C         30.36339       -2.01373       -2.89702
C         29.92415       -1.07346       -2.00362
Br        32.15182       -2.17741       -3.42957
H          1.15298        2.93528        1.15936
H         -0.87464       -2.50317        2.80567
H         -1.63355       -2.53903        1.17820
H         -2.57550       -2.04406        2.59710
H          2.34489       -0.67059        0.26177
H          8.53835       -0.96010       -0.73259
H         10.56927        0.14121       -1.94899
H         16.60786        2.01674       -1.50032
H         18.49990        2.12426       -0.03583
H         19.08278        6.56663        2.50754
H         24.15393        3.44521        1.14601
H         24.64953        5.69041        2.43778
H         20.65240        1.46126       -0.64601
H         23.18000        1.42425        1.09253
H         21.88847       -0.65072       -0.72713
H         28.04689        0.45479       -0.37907
H         26.19814       -3.39100       -3.01403
H         30.56987       -0.34277       -1.53132
