129

C         -0.05352       11.16031        6.38081
C         -0.44909       12.29942        6.99240
C         -0.21580       13.58416        6.42705
N         -0.01838       14.62678        5.95749
C         -1.05245       12.28896        8.28385
N         -1.55485       12.27051        9.32961
C          0.70303       11.03756        5.09905
C          1.35431        9.80148        5.10368
C          2.05799        9.28130        4.02579
C          2.11295       10.06193        2.85046
C          1.49331       11.32300        2.84636
C          0.78137       11.83396        3.96430
S          1.70470       12.10932        1.32099
C          2.54288       10.79106        0.68258
C          2.70062        9.76348        1.57290
Br         3.18846       10.73999       -1.07516
C          1.07910        9.09270        6.35718
O          1.72970        8.17626        6.81028
C         -0.10957        9.79341        6.94122
C         -1.14107        9.19285        7.56584
C         -1.35419        7.74831        7.82633
C         -2.21760        7.35787        8.87091
C         -2.64576        6.02735        9.01276
C         -2.19435        5.08796        8.10276
C         -1.24968        5.44204        7.12555
C         -0.87046        6.76324        6.95347
C         -0.87383        4.22892        6.27681
C         -0.92206        4.52417        4.77475
C          0.51727        3.71065        6.67983
C         -1.94990        3.24391        6.71692
C         -2.35979        2.07572        6.09168
C         -3.48519        1.37947        6.57744
C         -4.10618        1.86387        7.75344
C         -3.69136        3.03752        8.39299
C         -2.63906        3.73909        7.84486
C         -4.05471        0.23991        5.81542
C         -5.44869       -0.02652        5.83961
C         -6.03457       -1.02474        5.05694
C         -5.21936       -1.75786        4.22107
C         -3.82798       -1.54419        4.20178
C         -3.24478       -0.56332        4.99030
C         -3.16245       -2.47712        3.18979
C         -2.30280       -1.71181        2.17687
C         -2.32886       -3.53958        3.91790
C         -4.38873       -3.11452        2.53549
C         -4.45095       -3.92238        1.41168
C         -5.70519       -4.33047        0.91458
C         -6.86546       -3.95937        1.63535
C         -6.80151       -3.15843        2.77893
C         -5.56285       -2.71627        3.20071
C         -5.79903       -5.10029       -0.34550
C         -4.87819       -4.85938       -1.39675
C         -4.88288       -5.60913       -2.57451
C         -5.82375       -6.60995       -2.70657
C         -6.77926       -6.84368       -1.70142
C         -6.78010       -6.09277       -0.53055
C         -7.68047       -8.01704       -2.09650
C         -7.75007       -9.08258       -0.99971
C         -9.08562       -7.50974       -2.45590
C         -6.97939       -8.51572       -3.36743
C         -7.20374       -9.67465       -4.10428
C         -6.44706       -9.90829       -5.26694
C         -5.46202       -8.96344       -5.64010
C         -5.21293       -7.81790       -4.87647
C         -5.95890       -7.61388       -3.73552
C         -6.50345      -11.17405       -6.02530
C         -7.51200      -12.04890       -6.16046
C         -8.88017      -12.07888       -5.64902
C         -9.85655      -11.17420       -5.89851
C        -11.17902      -11.31539       -5.39007
N        -12.24647      -11.43284       -4.94170
C         -9.66804      -10.13321       -6.85633
N         -9.57845       -9.35016       -7.70690
C         -9.14412      -13.48495       -5.25981
C         -8.24389      -14.28771       -5.97091
C         -7.20726      -13.44950       -6.61210
O         -6.27862      -13.83247       -7.29122
C         -8.31880      -15.67334       -6.00220
C         -9.34282      -16.28711       -5.24231
C        -10.17923      -15.48129       -4.44992
C        -10.08785      -14.07031       -4.42912
S        -11.30548      -16.43871       -3.55657
C        -10.74926      -17.86489       -4.26431
C         -9.70617      -17.67337       -5.13014
Br       -11.49195      -19.54398       -3.89545
H          2.49896        8.28930        4.07521
H          0.28897       12.79683        3.88177
H          3.20502        8.83325        1.33874
H         -2.02153        9.78145        7.82292
H         -2.61785        8.10101        9.56416
H         -3.36197        5.76109        9.78270
H         -0.24462        7.00081        6.10467
H         -0.17538        5.27406        4.48928
H         -1.90497        4.90252        4.47115
H         -0.71476        3.62541        4.18326
H          1.29818        4.44868        6.45997
H          0.76878        2.78822        6.14303
H          0.57836        3.48629        7.75251
H         -1.85212        1.76550        5.18418
H         -4.96926        1.34764        8.16906
H         -4.24012        3.41661        9.24785
H         -6.11813        0.58346        6.44200
H         -7.10793       -1.17731        5.07882
H         -2.17203       -0.40999        4.93257
H         -1.46077       -1.20814        2.66590
H         -2.88275       -0.94562        1.64900
H         -1.88223       -2.38502        1.42063
H         -1.49219       -3.08543        4.46167
H         -1.91315       -4.27038        3.21484
H         -2.92867       -4.09531        4.64954
H         -3.52968       -4.20542        0.91104
H         -7.84999       -4.25832        1.28279
H         -7.71165       -2.85644        3.28550
H         -4.12550       -4.07938       -1.30065
H         -4.13353       -5.42821       -3.33692
H         -7.50760       -6.30838        0.24571
H         -8.21264       -8.68622       -0.08757
H         -6.75390       -9.45080       -0.72934
H         -8.34746       -9.94467       -1.31709
H         -9.58395       -7.05962       -1.58971
H         -9.72066       -8.32467       -2.82291
H         -9.05223       -6.74613       -3.24388
H         -7.91954      -10.39783       -3.73452
H         -4.84303       -9.13081       -6.52033
H         -4.42767       -7.12527       -5.16234
H         -5.53231      -11.46430       -6.43480
H         -7.62137      -16.25500       -6.59925
H        -10.75848      -13.49547       -3.79885
H         -9.21941      -18.47359       -5.67444
