96

C          6.57805        9.02407        7.19253
C          6.70964        9.99587        6.20811
C          5.73584        9.81724        5.20554
C          4.92994        8.73352        5.47454
S          5.28142        7.92049        6.88033
C          3.98361        8.60786        4.44121
C          4.17935        9.60954        3.52139
C          5.30916       10.43498        3.94927
C          5.83720       11.51002        3.33346
C          5.31228       12.00219        2.10921
N          4.88262       12.40976        1.10925
C          6.94884       12.20970        3.87819
N          7.85540       12.77922        4.32480
C          3.24249        9.53282        2.46795
C          2.34856        8.46313        2.63684
S          2.75853        7.55937        4.09229
C          1.23899        8.04590        1.81163
C          0.18527        7.43462        2.39311
C         -0.95860        6.98379        1.65428
C         -1.07905        7.19231        0.20825
C         -0.15347        7.77980       -0.54780
S          1.34710        8.39411        0.08454
C         -2.32621        6.65847       -0.16744
C         -2.96270        6.15057        0.93911
C         -4.21213        5.58183        0.64371
C         -4.48023        5.70593       -0.71036
S         -3.20029        6.48962       -1.57963
C         -2.09946        6.36374        2.08082
C         -2.39539        5.96011        3.44107
C         -3.63855        5.85339        3.93594
C         -3.99033        5.47487        5.27511
C         -3.37442        4.61815        6.09369
C         -4.11746        4.52389        7.32288
C         -5.28401        5.41849        7.20585
O         -6.14569        5.61420        8.03778
N         -5.14322        5.94682        5.90649
C         -6.08260        6.89014        5.34503
C         -3.50088        3.66225        8.14012
N         -2.36834        3.16262        7.47662
C         -2.21171        3.72928        6.19719
O         -1.34152        3.55752        5.36850
C         -1.40140        2.22300        7.98051
C         -3.93307        3.28539        9.47980
C         -5.15478        2.74034        9.66453
C         -5.65591        2.38789       10.96888
C         -4.82050        2.44836       12.17236
C         -3.58930        2.95526       12.19761
S         -2.82118        3.66199       10.79961
C         -5.59571        1.92749       13.22970
C         -6.84285        1.58846       12.76162
C         -7.69494        1.08643       13.75983
C         -7.02866        1.06380       14.97867
S         -5.39799        1.65316       14.86544
C         -6.86962        1.88966       11.34838
C         -7.99624        1.62870       10.48981
C         -8.60427        2.56961        9.74829
C         -9.68915        2.23375        8.89017
C         -9.94018        1.04121        8.20714
C        -11.12820        1.11582        7.45702
C        -11.73484        2.34406        7.58863
S        -10.92649        3.41824        8.56390
C        -12.91927        2.34792        6.82193
C        -13.05544        1.12101        6.20427
C        -11.92244        0.27044        6.57069
C        -11.66583       -0.99453        6.18319
C        -12.53676       -1.69497        5.30502
N        -13.24523       -2.26390        4.58829
C        -10.50733       -1.69916        6.62870
N         -9.56757       -2.26432        6.99193
C        -14.22886        1.05736        5.42427
C        -14.92522        2.25754        5.49744
S        -14.14162        3.42957        6.50444
H          7.17557        8.89922        8.08534
H          7.47094       10.76421        6.24988
H          3.17965       10.20919        1.62276
H          0.15108        7.26690        3.46347
H         -0.31111        7.89579       -1.61523
H         -4.89024        5.11034        1.34184
H         -5.36125        5.37124       -1.23921
H         -1.53605        5.75277        4.07590
H         -4.48065        6.10283        3.30046
H         -6.91545        7.05866        6.03244
H         -6.48219        6.49550        4.40549
H         -5.57497        7.84189        5.16068
H         -1.89806        1.40142        8.50049
H         -0.70792        2.74632        8.64394
H         -0.81949        1.80818        7.14957
H         -5.80451        2.53564        8.81846
H         -3.02729        2.97603       13.12620
H         -8.72161        0.76813       13.63092
H         -7.40803        0.73936       15.93869
H         -8.34565        0.59888       10.49532
H         -8.27986        3.60898        9.79472
H         -9.27269        0.19074        8.26766
H        -14.58185        0.21829        4.83735
H        -15.85818        2.51348        5.01275
