108

C          3.51254        2.83574       -0.64118
C          2.51765        2.54471       -1.50898
C          1.87900        1.27857       -1.51823
N          1.35473        0.23384       -1.48944
C          2.12168        3.47157       -2.52648
N          1.80545        4.21451       -3.35958
C          4.18329        1.92465        0.30547
C          5.51985        2.34211        0.42700
C          6.41820        1.73892        1.28715
C          5.92311        0.76401        2.16388
C          4.54127        0.40467        2.13076
C          3.68364        0.95757        1.16107
C          4.03825       -0.45617        3.11603
C          4.87416       -0.96939        4.10866
C          6.23153       -0.66079        4.10748
C          6.75518        0.19409        3.13677
C          5.69877        3.65408       -0.24608
O          6.72014        4.29599       -0.35044
C          4.29971        4.06729       -0.60413
C          3.92615        5.34210       -0.39294
C          2.57183        5.72154       -0.10516
C          1.58137        5.00399        0.57289
C          0.35628        5.71546        0.59704
C          0.51344        6.97351        0.09118
S          2.03341        7.32516       -0.54412
C         -0.61165        7.76516        0.15378
C         -1.75925        7.16930        0.58638
S         -1.30421        5.58676        1.06522
C         -2.79495        8.12083        0.43221
C         -2.18939        9.26886       -0.08803
N         -0.80789        9.07743       -0.14730
C          0.22290       10.08044       -0.26648
C         -2.77114       10.51202       -0.49154
C         -3.03533       11.41705        0.46726
C         -3.60564       12.70945        0.17347
C         -3.88539       13.13728       -1.20562
C         -3.72540       12.35729       -2.27618
S         -3.15682       10.70804       -2.18848
C         -4.38246       14.45558       -1.12609
C         -4.45996       14.83884        0.19132
C         -4.96578       16.13810        0.36888
C         -5.23168       16.71112       -0.86759
S         -4.87742       15.64305       -2.19265
C         -3.96208       13.74475        0.99468
C         -3.92644       13.78106        2.43874
C         -2.94160       13.24061        3.17070
C         -2.90774       13.20776        4.59160
C         -1.75101       13.06152        5.35307
C         -2.05833       13.02875        6.73473
C         -3.40678       13.12460        6.93690
S         -4.35451       13.24772        5.55531
C         -3.80450       13.06978        8.25042
C         -2.82044       12.91515        9.18152
S         -1.34719       12.89357        8.30439
C         -3.46067       12.83351       10.43934
C         -4.82751       12.88407       10.17142
N         -5.03891       13.13153        8.81899
C         -6.27430       13.46273        8.15127
C         -5.93714       12.76889       11.04766
C         -6.52423       11.59752       11.34815
C         -7.78215       11.36755       12.09326
C         -8.25870       12.09789       13.13407
C         -9.44092       11.74328       13.85473
N        -10.40045       11.44203       14.42541
C         -7.58569       13.25806       13.63319
N         -7.05957       14.20185       14.03602
C         -8.33505       10.06899       11.59780
C         -7.33561        9.42498       10.85726
C         -6.13231       10.26604       10.76151
O         -5.06976        9.90174       10.30589
C         -7.50920        8.19591       10.23902
C         -8.75787        7.57420       10.34024
C         -9.80291        8.20524       11.07093
C         -9.58019        9.45668       11.69221
C        -11.05146        7.56597       11.15003
C        -11.27026        6.33741       10.52157
C        -10.24636        5.72891        9.80204
C         -8.99727        6.34287        9.71235
H          7.44136        2.09835        1.34971
H          2.62911        0.69389        1.15810
H          2.97963       -0.70824        3.14448
H          4.46266       -1.60614        4.88812
H          6.88166       -1.06901        4.87741
H          7.81530        0.43741        3.17015
H          4.69457        6.10767       -0.28382
H          1.70427        4.02291        1.01099
H         -3.84729        7.98672        0.64260
H         -0.16032       11.04952        0.05913
H          0.55275       10.12391       -1.30497
H          1.05048        9.82869        0.40299
H         -2.78178       11.17619        1.49185
H         -3.97452       12.72780       -3.26527
H         -5.12206       16.64545        1.31246
H         -5.61421       17.70301       -1.07046
H         -4.75770       14.30258        2.90850
H         -2.08365       12.79541        2.67654
H         -0.75503       12.98451        4.93661
H         -2.99147       12.70861       11.40486
H         -7.07257       13.62437        8.87778
H         -6.55144       12.63974        7.48905
H         -6.13368       14.39523        7.59716
H         -6.32767       13.71365       11.41045
H         -6.69459        7.75366        9.67153
H        -10.40943        9.92422       12.21351
H        -11.87167        8.01900       11.70423
H        -12.24262        5.85561       10.59291
H        -10.41890        4.77542        9.30851
H         -8.21161        5.85166        9.14128
