72

C         -3.50850       -1.67644       -2.77955
C         -2.28809       -1.13311       -2.75787
C         -1.64876       -1.49185       -1.54141
C         -2.58552       -2.31833       -0.76351
O         -2.44369       -2.81306        0.33168
N         -3.70500       -2.37659       -1.61083
C         -0.44914       -0.92488       -1.57285
O         -0.23423       -0.14267       -2.74361
C         -1.38075       -0.29041       -3.52235
O         -1.57428        0.20638       -4.61481
N          0.55744       -0.97931       -0.63063
C          1.55359       -1.92040       -0.56460
S          1.79745       -3.13919       -1.76422
C          3.14131       -3.76646       -0.95372
N          3.88496       -4.85582       -1.50943
O          5.07379       -4.93352       -1.16986
O          3.29611       -5.63815       -2.26472
C          3.42177       -3.12117        0.22268
C          2.49712       -2.06277        0.45211
C          2.47523       -1.27635        1.64033
C          2.67696       -1.75205        2.88185
C          2.33292       -0.96232        4.04215
C          1.13355       -0.39051        4.23275
C          0.85327        0.49215        5.32847
C         -0.36036        1.03972        5.24153
C         -1.16289        0.58070        4.11258
S         -0.24515       -0.51457        3.13569
C         -2.45406        0.89550        3.92054
C         -3.22889        1.41221        5.01055
C         -4.53213        1.50948        4.77467
C         -4.77744        1.51622        3.38203
S         -3.51606        0.61598        2.54231
C         -5.65272        2.35588        2.82290
N         -6.48577        3.36162        3.29496
C         -6.68360        4.16321        4.39754
S         -8.11390        5.17387        4.17772
C         -7.95037        5.89086        5.68195
N         -8.87860        6.88699        6.10235
O         -9.40869        6.71084        7.20611
O         -9.03234        7.86493        5.36094
C         -6.88733        5.42599        6.39822
C         -6.10489        4.47618        5.64604
C         -4.87198        4.01139        6.23708
C         -4.77402        3.52002        7.49622
C         -3.62197        2.85299        8.05077
C         -3.46954        1.53566        8.25367
C         -2.09682        1.27291        8.51698
C         -1.38244        2.55801        8.55753
O         -0.19427        2.74373        8.70114
N         -2.40179        3.47386        8.25421
C         -1.96413       -0.04018        8.47822
O         -3.16827       -0.73553        8.23311
C         -4.14714        0.24550        8.08043
O         -5.31700        0.06999        7.80008
H         -4.27109       -1.60803       -3.54954
H         -4.54448       -2.87797       -1.35408
H          0.81974       -0.04944       -0.32332
H          4.23095       -3.39686        0.89010
H          2.12181       -0.25285        1.53645
H          3.00520       -2.76964        3.07192
H          3.12243       -0.83771        4.78016
H          1.57639        0.75383        6.08923
H         -0.67182        1.81869        5.92092
H         -2.77772        1.58885        5.95370
H         -5.30940        1.72595        5.48654
H         -5.75117        2.29166        1.73795
H         -7.15924        3.59181        2.56023
H         -6.63862        5.78720        7.39058
H         -3.99938        4.02979        5.58691
H         -5.66673        3.45361        8.11764
H         -2.22079        4.46062        8.12814
H         -1.08296       -0.65881        8.51805
