116

C         -1.74657       -3.77611        7.75751
C         -0.72557       -4.43034        7.20108
C         -1.23518       -5.47145        6.37629
C         -2.70929       -5.42086        6.45386
O         -3.52874       -6.12767        5.90969
N         -2.92658       -4.34901        7.32917
C         -0.17738       -6.07802        5.85041
O          1.06075       -5.49870        6.27105
C          0.73178       -4.45926        7.13152
O          1.50762       -3.71995        7.71101
C         -0.11720       -7.20468        4.91805
C          0.98404       -7.33325        4.05607
C          1.03472       -8.39565        3.15942
C          0.00950       -9.36251        3.13660
C         -1.07033       -9.26571        3.99672
C         -1.12989       -8.18435        4.88299
C          0.32847      -10.37820        2.15975
C          1.56914      -10.07316        1.56117
C          2.13933       -8.76459        2.15457
C          3.49754       -9.01122        2.86223
C          3.47129      -10.01038        4.02025
C          2.26130       -7.72195        1.00407
C          2.84129       -6.35616        1.36330
C          2.10988      -10.90102        0.58050
C          1.39980      -12.04978        0.20306
C          0.16112      -12.34560        0.80474
C         -0.37810      -11.51153        1.78951
C          1.93895      -12.94635       -0.82383
C          1.55021      -12.85280       -2.10326
C          2.03726      -13.72878       -3.15501
C          1.41633      -13.95604       -4.32334
C          1.95107      -14.74013       -5.41391
C          1.23475      -14.64035       -6.54547
C          0.08776      -13.75604       -6.42540
S         -0.15879      -13.33105       -4.73475
C         -0.60760      -13.19180       -7.42975
C         -0.34711      -13.32747       -8.85122
C         -0.86180      -12.32357       -9.57986
C         -1.57160      -11.35019       -8.77885
S         -1.85001      -11.96892       -7.17322
C         -1.89138      -10.11115       -9.17933
C         -2.47919       -9.09147       -8.30075
C         -1.63982       -8.26715       -7.53760
C         -2.22282       -7.34349       -6.68022
C         -3.62700       -7.23181       -6.57074
C         -4.45793       -8.04664       -7.32163
C         -3.87750       -8.98100       -8.18608
C         -3.94739       -6.20479       -5.60322
C         -2.75041       -5.65996       -5.09515
C         -1.54041       -6.34538       -5.73884
C         -0.66408       -5.32506       -6.51865
C         -1.35093       -4.60072       -7.67630
C         -0.66007       -7.05974       -4.67395
C         -1.33698       -8.17940       -3.88340
C         -2.76569       -4.64436       -4.14659
C         -3.99835       -4.17371       -3.67711
C         -5.19133       -4.71546       -4.19858
C         -5.17191       -5.73508       -5.16028
C         -4.08424       -3.08704       -2.68863
C         -3.19610       -2.91623       -1.69602
C         -3.25274       -1.87777       -0.70943
C         -2.68412       -1.86184        0.49930
C         -2.99232       -0.62304        1.12616
C         -3.79277        0.17955        0.19129
O         -4.22602        1.29923        0.34868
N         -3.90590       -0.67381       -0.90889
C         -2.43094       -0.67598        2.31796
O         -1.73640       -1.87449        2.58210
C         -1.87313       -2.64792        1.42919
O         -1.39936       -3.75142        1.23901
H         -1.72235       -2.93730        8.43902
H         -3.85629       -4.05312        7.59638
H          1.79515       -6.61309        4.09250
H         -1.85757      -10.01227        4.00041
H         -1.98069       -8.13152        5.55904
H          3.88287       -8.06807        3.26723
H          4.23575       -9.35966        2.12852
H          2.80339       -9.68282        4.82291
H          4.47338      -10.10142        4.45212
H          3.15885      -11.00595        3.69314
H          1.27734       -7.55976        0.54313
H          2.89968       -8.13452        0.21099
H          2.24517       -5.83576        2.11427
H          2.85322       -5.71545        0.47484
H          3.87202       -6.43281        1.72060
H          3.05964      -10.66144        0.11309
H         -0.39237      -13.23358        0.50507
H         -1.33133      -11.75489        2.24681
H          2.62317      -13.71506       -0.48137
H          0.83955      -12.07635       -2.38728
H          3.00493      -14.19200       -2.97464
H          2.86483      -15.31185       -5.32892
H          1.51158      -15.12607       -7.47017
H          0.26063      -14.11601       -9.27072
H         -0.71672      -12.20930      -10.64472
H         -1.64895       -9.76907      -10.18041
H         -0.55978       -8.36224       -7.59442
H         -5.53696       -7.98099       -7.23539
H         -4.52244       -9.64277       -8.75952
H          0.21608       -5.83923       -6.92618
H         -0.27933       -4.56427       -5.82619
H         -1.72932       -5.30055       -8.42717
H         -0.63305       -3.94418       -8.17923
H         -2.18186       -3.97951       -7.32980
H         -0.28074       -6.32152       -3.95449
H          0.22361       -7.49012       -5.16299
H         -2.17952       -7.80722       -3.29359
H         -0.61835       -8.62816       -3.18907
H         -1.69571       -8.97956       -4.53752
H         -1.82855       -4.22959       -3.78888
H         -6.15682       -4.35390       -3.84846
H         -6.10145       -6.14439       -5.54111
H         -4.95332       -2.44097       -2.78007
H         -2.37641       -3.62478       -1.57416
H         -4.38096       -0.40315       -1.75815
H         -2.42082        0.04921        3.11226
