95

C         -5.97758        3.22271        5.14719
C         -6.36457        4.52911        4.85852
F         -5.83031        5.54054        5.55636
C         -7.29355        4.78563        3.86080
F         -7.65210        6.04543        3.57864
C         -7.86612        3.74033        3.14513
C         -7.51009        2.41486        3.43225
C         -6.53686        2.14525        4.44138
C         -6.14747        0.81463        4.71705
C         -6.73527       -0.23848        4.02162
C         -7.69259        0.07059        3.04335
C         -8.09408        1.35699        2.73134
C         -8.12412       -1.14809        2.33876
O         -9.00658       -1.23170        1.51058
C         -7.22406       -2.22865        2.83170
C         -6.53343       -1.71798        4.03436
C         -5.96010       -2.45533        5.01690
C         -5.95914       -3.88339        5.00443
N         -5.95511       -5.04122        4.99506
C         -5.35545       -1.86951        6.16656
N         -4.85149       -1.38591        7.09198
C         -6.97699       -3.31495        2.09049
N         -7.47452       -3.66370        0.84729
C         -7.12461       -4.76120        0.11210
S         -6.59840       -6.23399        0.84824
C         -6.29824       -6.96840       -0.64142
N         -5.72800       -8.28869       -0.69078
O         -5.54130       -8.76271       -1.81911
O         -5.45227       -8.85255        0.37642
C         -6.64492       -6.17115       -1.70897
C         -7.13547       -4.89748       -1.27159
C         -7.53949       -3.85696       -2.17291
C         -6.69617       -2.93028       -2.66124
C         -7.11397       -1.90082       -3.55915
S         -5.96918       -1.24194       -4.66320
C         -7.09931       -0.17303       -5.41590
C         -8.32503       -0.28554       -4.77823
C         -8.30827       -1.22265       -3.70096
O         -9.37006       -1.44164       -2.89060
S         -9.87052       -0.04376       -2.13073
C        -10.54178        0.87836       -3.53843
S         -9.83276        0.54357       -5.17595
C         -6.67750        0.70238       -6.50908
C         -5.74985        0.48267       -7.54031
C         -4.89693       -0.66301       -7.63793
N         -4.10881       -1.51098       -7.71755
C         -5.65577        1.62181       -8.36729
C         -6.31548        2.69793       -7.89880
S         -7.25167        2.36448       -6.56373
S         -5.97856        4.12806       -8.73326
C         -4.92602        3.27087       -9.73773
C         -4.91768        1.94397       -9.50073
C         -4.23513        1.20575      -10.47690
C         -4.37259       -0.19795      -10.71764
N         -4.47000       -1.33041      -10.94651
C         -3.45374        2.05592      -11.27522
S         -3.90283        3.72977      -10.97508
C         -2.49938        1.79076      -12.31185
C         -1.64949        0.75036      -12.32007
C         -1.10592        0.30460      -13.65157
O         -0.92344        0.97500      -14.64328
C         -0.96810       -1.16502      -13.52973
C         -0.77578       -2.06923      -14.56113
C         -0.92345       -3.43596      -14.27699
C         -1.29493       -3.85177      -12.96088
C         -1.52720       -5.21164      -12.70735
C         -1.36176       -6.14946      -13.72039
C         -0.96474       -5.75188      -14.98895
C         -0.75075       -4.40612      -15.27600
F         -0.79127       -6.66339      -15.95586
F         -1.58829       -7.44398      -13.45870
C         -1.44391       -2.90334      -11.93318
C         -1.24010       -1.56073      -12.21221
C         -1.37114       -0.34056      -11.38017
C         -1.07413       -0.24036      -10.06204
C         -1.04166        1.01605       -9.38729
N         -1.04186        2.03919       -8.84169
C         -0.70736       -1.37111       -9.27659
N         -0.39417       -2.29430       -8.64900
H         -5.24345        3.06469        5.93360
H         -8.58867        3.97684        2.36856
H         -5.37194        0.64745        5.45823
H         -8.82897        1.52090        1.94720
H         -6.21882       -4.01795        2.42102
H         -8.04687       -2.93293        0.40992
H         -6.53193       -6.47127       -2.74529
H         -8.58661       -3.86626       -2.46740
H         -5.64379       -2.96892       -2.38430
H        -11.61993        0.70384       -3.58759
H        -10.39396        1.94211       -3.32710
H         -2.54352        2.43270      -13.19435
H         -0.56960       -1.71131      -15.56636
H         -1.84304       -5.55793      -11.72607
H         -0.45598       -4.13273      -16.28553
H         -1.76857       -3.22909      -10.94727
