79

C          1.88350        0.49457       -3.65856
C          0.89607        1.38664       -3.98752
S         -0.62118        0.56769       -4.17167
C          0.06626       -0.93919       -3.77552
Cl        -0.91719       -2.34113       -3.73074
C          1.39681       -0.82655       -3.51036
C          2.39252       -1.74603       -3.04688
O          2.20311       -2.85807       -2.59388
C          3.65092       -0.87163       -2.97354
C          3.30213        0.53928       -3.38671
C          4.12364        1.60246       -3.55222
C          3.63834        2.88005       -3.95201
N          3.23674        3.92247       -4.26378
C          5.53463        1.53019       -3.36902
N          6.68083        1.46700       -3.21567
C          4.75882       -1.32282       -2.35871
N          5.05689       -2.62446       -2.01287
C          4.80039       -3.74712       -2.74824
O          4.41372       -3.84177       -3.90221
C          5.28687       -4.89413       -1.97853
C          6.00029       -4.42676       -0.95129
C          5.90892       -2.94754       -0.99513
O          6.48640       -2.17788       -0.24329
C          6.80549       -5.22249       -0.06667
C          7.53121       -4.76442        0.96521
C          8.49533       -5.58049        1.64186
N          8.55448       -5.76822        3.01978
C          7.61986       -5.24933        3.99772
C          6.51633       -6.24227        4.32659
C          9.63045       -6.60961        3.38022
O          9.97068       -7.01648        4.47186
C         10.27242       -6.89323        2.08308
C          9.50919       -6.22962        1.06449
C         10.13748       -6.50254       -0.23835
O          9.77962       -6.10373       -1.32740
N         11.21786       -7.33446        0.11320
C         12.16014       -7.82805       -0.87238
C         13.31508       -6.86710       -1.10611
C         11.28422       -7.53127        1.49432
C         12.28736       -8.34443        2.11151
C         13.09622       -7.91843        3.09459
C         14.14085       -8.73423        3.72343
C         14.37953      -10.06773        3.45194
N         15.34172      -10.80908        4.03817
C         16.11989      -10.18616        4.94860
N         15.98033       -8.88178        5.28751
C         14.99032       -8.19843        4.67303
C         17.20053      -10.97727        5.59972
N         18.31185      -10.32266        6.00767
C         19.27247      -11.06839        6.57407
C         19.17346      -12.42603        6.75163
C         18.01230      -13.01535        6.29951
N         17.01533      -12.31239        5.73399
C         17.74214      -14.45005        6.44847
C         18.67093      -15.41664        6.46167
H          0.92341        2.45723       -4.13198
H          5.52082       -0.63114       -2.01110
H          5.15264       -5.91208       -2.30074
H          6.87544       -6.27811       -0.33129
H          7.50190       -3.72246        1.27389
H          7.19210       -4.30655        3.64199
H          8.17876       -5.02732        4.91412
H          5.93289       -6.49665        3.43605
H          5.83622       -5.81858        5.07256
H          6.92943       -7.17123        4.73342
H         11.62340       -7.96931       -1.81757
H         12.53468       -8.81011       -0.56697
H         12.95719       -5.91186       -1.50407
H         14.01968       -7.29268       -1.82797
H         13.85883       -6.66142       -0.17868
H         12.35722       -9.35026        1.70886
H         13.00210       -6.89881        3.46577
H         13.79317      -10.62429        2.72859
H         14.90819       -7.16087        4.98829
H         20.15537      -10.52281        6.89324
H         19.96409      -12.98392        7.23199
H         16.68875      -14.71260        6.52314
H         19.73005      -15.21227        6.34812
H         18.37712      -16.45619        6.56495
