88

C          2.89111        2.84230        1.98582
C          2.46555        3.96534        2.64492
S          3.25371        4.10013        4.18007
C          4.13065        2.66097        3.93151
Cl         5.21879        2.12183        5.13946
C          3.83433        2.08913        2.72863
C          4.26416        0.89960        2.05010
O          5.04075        0.05145        2.43982
C          3.49119        0.95953        0.72615
C          2.62552        2.20133        0.71540
C          1.77514        2.64141       -0.24172
C          1.01360        3.83678       -0.09132
N          0.38812        4.81262        0.03757
C          1.55527        1.96469       -1.47289
N          1.37700        1.40697       -2.47602
C          3.62618        0.00191       -0.21427
C          4.44154       -1.21418       -0.13907
C          3.95547       -2.39250        0.38987
N          4.65403       -3.54608        0.43647
C          5.90129       -3.51612       -0.06748
N          6.46465       -2.42982       -0.62150
C          5.71820       -1.30515       -0.65375
C          6.71382       -4.73511        0.01994
N          6.65345       -5.70210        1.03951
C          5.77244       -5.69543        2.18905
C          4.45655       -6.41038        1.92001
C          7.57620       -6.74104        0.82709
O          7.79483       -7.73284        1.49439
C          8.23047       -6.34709       -0.43193
C          7.65061       -5.10246       -0.86288
C          8.29450       -4.72719       -2.13408
O          8.04427       -3.78036       -2.85091
N          9.22051       -5.77791       -2.33726
C          9.99812       -5.85750       -3.55808
C         11.22166       -4.95420       -3.54340
C          9.14827       -6.73518       -1.32096
C          9.97136       -7.91498       -1.26715
C          9.55120       -9.10256       -0.79776
C         10.44248      -10.20874       -0.70740
O         11.79404      -10.03371       -0.53517
C         12.42477      -11.24138       -0.43635
C         11.45890      -12.21892       -0.58389
C         10.18825      -11.58215       -0.70684
C          8.86590      -12.20539       -0.83555
O          7.93977      -11.59568       -1.38028
C          8.65734      -13.61636       -0.27515
F          9.75491      -14.15934        0.32584
F          7.67207      -13.65227        0.66689
F          8.29054      -14.50518       -1.24219
C         13.82011      -11.40157       -0.22867
C         14.61656      -10.34136       -0.01895
C         16.03910      -10.49125        0.19630
C         16.96078       -9.54724        0.44560
C         18.28393      -10.06732        0.99897
O         18.74848      -11.18782        0.91954
C         18.78724       -8.92155        1.70271
C         19.87469       -8.68377        2.48603
S         19.89002       -7.08112        3.06797
C         18.42228       -6.68553        2.23523
C         17.96412       -7.77396        1.54277
C         16.89636       -8.06889        0.61509
C         16.19199       -7.16418       -0.10274
C         16.19379       -5.77892        0.22810
N         16.18144       -4.65747        0.52548
C         15.50401       -7.50630       -1.30153
N         14.97899       -7.75015       -2.30704
Cl        21.14096       -9.75549        2.91135
H          1.75610        4.73219        2.36536
H          3.09390        0.03496       -1.15756
H          2.95001       -2.46018        0.79587
H          6.20294       -0.46161       -1.13727
H          5.61074       -4.66871        2.52998
H          6.28188       -6.21838        3.00769
H          3.90369       -5.95089        1.09594
H          3.82273       -6.38142        2.81182
H          4.62517       -7.45928        1.65481
H          9.34790       -5.54377       -4.38369
H         10.28980       -6.89309       -3.75666
H         10.94345       -3.90668       -3.38641
H         11.74830       -5.02088       -4.50157
H         11.91797       -5.24070       -2.74943
H         10.99186       -7.80813       -1.63032
H          8.52923       -9.24505       -0.45626
H         11.66736      -13.28113       -0.58425
H         14.21906      -12.41190       -0.23539
H         14.17130       -9.35278        0.02517
H         16.36932      -11.53398        0.23437
H         18.03128       -5.68004        2.31563
