107

C         -1.06318        0.22868        1.47169
C         -0.62348        0.37947        2.73861
C         -1.38620       -0.07937        3.85255
N         -2.02065       -0.45410        4.74728
C          0.70849        0.81523        3.00294
N          1.81458        1.09700        3.22155
C         -2.19269       -0.62013        1.04941
C         -1.76692       -1.33371       -0.08306
C         -2.57862       -2.23225       -0.74538
C         -3.91990       -2.30740       -0.34593
C         -4.40288       -1.48086        0.71526
C         -3.51497       -0.67453        1.44926
C         -5.77943       -1.44692        0.97757
C         -6.66436       -2.23368        0.23896
C         -6.18221       -3.09315       -0.74455
C         -4.81790       -3.13333       -1.03310
C         -0.48485       -0.76384       -0.57742
O          0.17695       -1.14343       -1.51805
C         -0.30439        0.47968        0.25675
C          0.01650        1.61766       -0.38601
C         -0.33831        3.04066       -0.10496
C          0.50430        4.10869       -0.47878
C          0.10563        5.50244       -0.40625
N          0.98495        6.47405       -0.72713
C          2.20942        6.09904       -1.15520
C          2.55913        4.77934       -1.29754
N          1.72137        3.78257       -0.95382
C         -1.19962        5.88559       -0.05861
C         -2.08415        4.84902        0.33693
C         -1.64834        3.40549        0.32149
N         -2.64196        2.58126        0.69582
S         -3.96703        3.50185        1.04318
N         -3.36021        5.00338        0.73352
C         -1.72862        7.25310       -0.09871
N         -2.47547        7.80173       -1.16116
C         -2.89866        7.14197       -2.37787
C         -4.30066        6.55577       -2.25966
C         -2.97517        9.08587       -0.84696
O         -3.66552        9.84203       -1.49516
C         -2.50713        9.26701        0.53257
C         -1.70835        8.13336        0.91163
C         -1.29036        8.34456        2.31297
O         -0.57375        7.62530        2.97989
N         -1.96618        9.53280        2.67202
C         -1.97173       10.04881        4.02902
C         -0.85123       11.03206        4.30841
C         -2.66305       10.06063        1.58841
C         -3.45294       11.24791        1.63464
C         -4.53664       11.42031        2.41347
C         -5.21108       12.67377        2.51606
S         -4.64597       14.03333        1.66406
C         -5.77766       15.10257        2.35279
C         -5.58075       16.50359        2.02174
O         -5.91724       17.45592        2.71754
O         -4.90814       16.68711        0.84088
C         -6.67780       14.43206        3.17245
C         -6.31495       13.02944        3.27699
C         -7.80004       14.97009        3.91982
C         -8.67361       15.94189        3.58910
C         -9.75336       16.60424        4.37176
C        -10.65899       15.98722        5.17465
C        -11.78241       16.67632        5.71710
N        -12.70790       17.23210        6.15304
C        -10.61500       14.58191        5.40516
N        -10.56647       13.43705        5.57425
C         -9.83275       18.00659        3.86144
C         -9.11990       18.04997        2.65323
C         -8.59347       16.72548        2.32489
O         -8.26814       16.32938        1.21780
C         -8.95530       19.18915        1.88806
C         -9.59267       20.35421        2.30773
C        -10.35389       20.35375        3.51163
C        -10.44179       19.17706        4.30119
C        -11.02303       21.53573        3.87145
C        -10.95245       22.67750        3.06530
C        -10.19416       22.66727        1.89804
C         -9.50856       21.51390        1.52666
H         -2.20449       -2.77364       -1.60897
H         -3.88030       -0.03789        2.25058
H         -6.18206       -0.78221        1.73943
H         -7.73279       -2.17463        0.43142
H         -6.87199       -3.71917       -1.30495
H         -4.46690       -3.79683       -1.82083
H          0.48741        1.51045       -1.36812
H          2.89884        6.89864       -1.40000
H          3.52011        4.47759       -1.69861
H         -2.17367        6.37453       -2.66269
H         -2.91548        7.89312       -3.17784
H         -4.36375        5.82497       -1.45353
H         -4.58710        6.05261       -3.18747
H         -5.04393        7.33285       -2.04958
H         -1.88143        9.19744        4.71156
H         -2.93294       10.51679        4.25644
H          0.12482       10.55293        4.19243
H         -0.93052       11.40217        5.33660
H         -0.89387       11.89323        3.63429
H         -3.08456       12.02178        0.96300
H         -4.88931       10.59990        3.03456
H         -4.70611       15.82472        0.42753
H         -6.84651       12.31591        3.90007
H         -7.92790       14.49798        4.89265
H         -8.35032       19.14980        0.98623
H        -11.00508       19.21361        5.22871
H        -11.63000       21.57530        4.77393
H        -11.49698       23.57599        3.34518
H        -10.14326       23.55267        1.26890
H         -8.92460       21.52019        0.60837
