132

C          1.16518        2.20469       -3.54985
C          0.94282        2.07895       -4.87522
C          1.84822        1.38502       -5.72538
N          2.60080        0.81707       -6.40235
C         -0.16979        2.72204       -5.50728
N         -1.07783        3.24047       -5.98449
C          2.33867        1.70974       -2.78071
C          2.50015        2.55418       -1.67464
C          3.39747        2.35261       -0.64882
C          4.12422        1.17368       -0.67625
C          3.99084        0.27493       -1.77971
C          3.11297        0.56571       -2.85133
C          4.69872       -0.92961       -1.73441
C          5.47890       -1.25648       -0.62127
C          5.58411       -0.37857        0.45551
C          4.92091        0.84208        0.42216
C          1.42373        3.53919       -1.62167
O          1.43393        4.53216       -0.93171
C          0.40240        3.03188       -2.59288
C         -0.92576        2.98277       -2.37335
C         -1.52391        3.44311       -1.16000
S         -2.03674        5.07608       -1.03940
C         -2.64216        4.88487        0.55542
C         -2.23548        3.66076        1.06873
C         -1.82793        2.74844        0.01251
C         -1.71641        1.24808        0.27058
N         -2.78487        0.44867       -0.47458
O         -2.52131       -0.73774       -0.71390
O         -3.88208        0.99094       -0.66650
C         -1.98159        0.85333        1.74344
C         -1.56127        1.91035        2.75105
C         -2.34557        3.21253        2.51517
N         -1.77891        4.23268        3.49288
O         -2.55557        4.69030        4.34047
O         -0.57779        4.51389        3.40222
C         -3.47898        5.85257        1.19214
C         -3.43470        7.17550        0.97142
C         -4.37764        8.09140        1.56394
N         -4.56121        8.28959        2.93714
C         -3.73227        7.75440        3.99994
C         -4.51665        6.86777        4.95271
C         -5.56040        9.25488        3.19501
O         -5.96797        9.69406        4.25059
C         -5.97832        9.66254        1.84288
C         -5.21338        8.89361        0.89761
C         -5.62753        9.30100       -0.45457
O         -5.22569        8.85842       -1.51058
N         -6.57143       10.31835       -0.19798
C         -7.18407       11.07050       -1.27527
C         -8.46479       10.43004       -1.77156
C         -6.77573       10.49742        1.17201
C         -7.68175       11.45989        1.73751
C         -9.00670       11.43830        1.52342
C         -9.94281       12.32647        2.13123
S         -9.65517       12.99565        3.67610
C        -11.22589       13.67940        3.81270
C        -11.99632       13.33453        2.70805
C        -11.18903       12.72390        1.65777
C        -11.75332       12.45621        0.27115
N        -10.81124       12.86750       -0.85832
O        -10.89554       12.21398       -1.90640
O        -10.04704       13.82520       -0.67915
C        -13.08288       13.20161        0.04468
C        -14.04095       12.96552        1.21581
C        -13.49233       13.54701        2.53819
N        -14.30504       12.88279        3.64924
O        -15.33191       13.47275        4.01215
O        -13.93488       11.77291        4.05967
C        -11.48083       14.39881        5.01816
C        -12.31610       15.44340        5.11483
C        -12.40897       16.21392        6.34639
C        -12.72397       17.51792        6.43788
C        -12.70048       18.43749        7.60502
C        -12.86256       18.11818        8.91261
C        -12.90508       19.08517        9.95663
N        -12.93719       19.87059       10.81427
C        -13.05333       16.77553        9.35239
N        -13.19553       15.68805        9.71855
C        -12.61232       19.82370        7.05011
C        -12.79482       19.76051        5.66398
C        -12.94660       18.37209        5.21929
O        -13.19478       18.03230        4.08044
C        -12.78435       20.87090        4.83371
C        -12.57542       22.12662        5.41112
C        -12.36969       22.22989        6.81383
C        -12.37811       21.07011        7.62028
C        -12.16079       23.49943        7.37592
C        -12.15492       24.64472        6.57727
C        -12.35142       24.53826        5.20382
C        -12.55877       23.28678        4.62323
H          3.43385        3.04651        0.18623
H          2.98983       -0.15464       -3.65626
H          4.62303       -1.64480       -2.55037
H          5.99478       -2.21207       -0.58737
H          6.17098       -0.64922        1.32925
H          4.99716        1.51138        1.27791
H         -1.56457        2.42324       -3.05088
H         -0.74089        0.87641       -0.06993
H         -1.48128       -0.09844        1.95986
H         -3.05387        0.66623        1.90487
H         -0.47801        2.06947        2.66902
H         -1.75195        1.53842        3.76494
H         -3.40471        3.07935        2.76931
H         -4.22932        5.46438        1.87950
H         -2.72670        7.61202        0.26941
H         -3.28430        8.59166        4.55314
H         -2.91013        7.18736        3.56436
H         -5.34346        7.40356        5.42573
H         -3.86180        6.49066        5.74456
H         -4.93813        6.00998        4.41846
H         -6.47401       11.11278       -2.10887
H         -7.36457       12.10417       -0.96371
H         -8.28681        9.43442       -2.17926
H         -8.90803       11.04669       -2.55528
H         -9.20088       10.32111       -0.97851
H         -7.22518       12.20940        2.37921
H         -9.41908       10.67730        0.87585
H        -11.91190       11.37636        0.15155
H        -13.55128       12.86039       -0.88790
H        -12.92585       14.28294       -0.05998
H        -14.23116       11.88627        1.30094
H        -15.01130       13.42841        0.99356
H        -13.71756       14.61756        2.58404
H        -10.86340       14.14949        5.88108
H        -12.89204       15.79289        4.26537
H        -12.11675       15.64588        7.22692
H        -12.92646       20.75013        3.76317
H        -12.18723       21.19102        8.68137
H        -12.00610       23.61125        8.44770
H        -11.99745       25.62119        7.02943
H        -12.34429       25.43029        4.58219
H        -12.70821       23.22629        3.54711
