106

C          1.30377        1.59741       -4.23640
C         -0.01278        0.88147       -4.35061
O         -0.17079       -0.28598       -4.64058
C         -1.04688        1.88326       -3.95992
C         -0.41009        3.11180       -3.68916
C          0.98565        3.02350       -4.17181
C          1.64975        4.01801       -4.80216
C          2.81942        3.78557       -5.59868
N          3.74111        3.59082       -6.26288
C          1.15162        5.34794       -4.85310
N          0.72339        6.41875       -4.89143
C         -1.11488        4.14647       -3.10127
C         -2.48765        3.98602       -2.89873
C         -3.16055        2.80997       -3.29205
C         -2.43275        1.71439       -3.82355
C         -3.13885        0.55619       -4.21043
C         -4.52977        0.49670       -4.10616
C         -5.23656        1.57696       -3.58935
C         -4.55529        2.72008       -3.17246
C          2.43582        0.90660       -4.04199
C          3.64736        1.51931       -3.61100
O          3.69735        2.64092       -2.79650
C          5.01538        2.98904       -2.54869
C          5.79243        2.03976       -3.19427
C          4.95302        1.14947       -3.85736
F          5.33624        0.14148       -4.58851
F          7.09411        1.96665       -3.16331
C          5.40672        4.08083       -1.69979
C          6.61573        4.65923       -1.93217
C          7.24464        5.40389       -0.86142
C          8.47762        5.95784       -0.74692
C          9.48526        6.53416       -1.72725
C          9.31730        6.04378       -3.18607
N         10.30718        6.60003       -4.11358
C          9.34686        8.09450       -1.61163
N         10.20389        8.88831       -2.50028
C          8.70524        5.89545        0.69712
C          9.81354        5.53740        1.36416
C          9.77779        5.21433        2.86102
C          8.45107        5.58727        3.53109
C          7.33305        5.85909        2.83109
C          7.44122        5.78211        1.40354
C          6.55724        5.45158        0.45546
C          5.15360        5.14655        0.52733
C          4.60788        4.50076       -0.52292
C         10.94045        5.81264        3.61453
C         11.92659        6.54727        3.07870
C         12.98256        7.01460        3.88477
O         14.13321        6.29429        4.09803
C         14.99267        7.02106        4.89949
C         14.36010        8.21695        5.17873
C         13.11582        8.21272        4.55319
F         12.23142        9.16904        4.57596
F         14.84523        9.18365        5.90570
C         16.28102        6.55879        5.27449
C         16.58369        5.25984        5.40294
C         18.02906        4.86756        5.36625
O         18.97313        5.58697        5.61995
C         18.04967        3.46425        4.87524
C         16.72165        3.00350        4.74112
C         15.80477        4.02425        5.31285
C         14.60995        3.76934        5.90503
C         13.93938        4.72930        6.72064
N         13.39452        5.49183        7.41011
C         13.97953        2.49809        5.85401
N         13.46092        1.46075        5.80445
C         16.48014        1.77746        4.14410
C         17.57074        0.99231        3.75696
C         18.90163        1.41597        3.95489
C         19.16526        2.68903        4.51743
C         20.51011        3.08763        4.68468
C         21.56159        2.24327        4.32518
C         21.29283        0.99284        3.78138
C         19.97306        0.58513        3.59118
H         -0.64381        5.07900       -2.80283
H         -3.04620        4.81078       -2.45542
H         -2.61625       -0.30135       -4.63052
H         -5.06026       -0.39184       -4.43965
H         -6.32056        1.53398       -3.51598
H         -5.13037        3.55336       -2.77261
H          2.43676       -0.17844       -4.13754
H          7.24026        4.35240       -2.76236
H         10.49879        6.25917       -1.40630
H          8.32059        6.30072       -3.56154
H          9.42641        4.95525       -3.21661
H         10.19736        7.62595       -4.07817
H         10.07520        6.33343       -5.06886
H          9.57327        8.40185       -0.58240
H          8.30817        8.39032       -1.80731
H         11.17371        8.59000       -2.38166
H         10.16491        9.87051       -2.22776
H         10.72811        5.32374        0.81914
H          9.87743        4.12271        2.95715
H          8.40236        5.57096        4.61656
H          6.38525        6.08341        3.30372
H          4.57307        5.46558        1.38442
H          3.54908        4.26188       -0.52326
H         10.96485        5.58289        4.68010
H         11.96791        6.79486        2.02499
H         17.06564        7.31170        5.34793
H         15.48031        1.40166        3.95367
H         17.37253        0.02376        3.29653
H         20.75588        4.05806        5.11189
H         22.58935        2.56415        4.47522
H         22.11081        0.33237        3.50448
H         19.78731       -0.39642        3.15960
