118

C          7.53663       -7.38778        4.36009
C          7.05708       -8.51622        5.24014
O          5.97156       -9.05775        5.19759
C          8.23075       -8.88101        6.09980
C          9.30617       -8.03152        5.76700
C          8.76074       -6.89824        4.98573
C          9.06542       -5.60658        5.26824
C          8.14502       -4.53925        5.04508
N          7.40267       -3.65305        4.97413
C         10.21767       -5.24072        6.01090
N         11.17475       -4.94574        6.60611
C         10.57863       -8.29383        6.23974
C         10.74415       -9.33372        7.15605
C          9.64751      -10.08636        7.62527
C          8.35076       -9.88133        7.08146
C          7.28024      -10.64396        7.59542
C          7.47927      -11.54757        8.64440
C          8.75209      -11.73568        9.17253
C          9.83147      -11.02417        8.65251
C          7.01213       -7.17336        3.13969
C          7.67020       -6.39202        2.13067
S          7.20394       -4.75491        1.84715
C          8.43603       -4.45192        0.65570
C          9.09378       -5.63189        0.38390
C          8.63238       -6.74642        1.19907
C          9.12735       -8.05392        1.06906
C         10.11463       -8.17143        0.06347
C         10.58597       -7.07525       -0.72131
C         10.09505       -5.76605       -0.58400
F         10.57621       -4.76637       -1.32752
C          8.54647       -3.11206        0.13884
C          9.45461       -2.29299        0.73684
C          9.27582       -0.85543        0.60936
C          9.81894        0.15974        1.33585
C         11.02392        0.14019        2.26460
C         12.34213        0.51988        1.52418
N         12.71876       -0.39134        0.44189
C         10.92737        0.95530        3.58852
N         10.96180        2.41339        3.46045
C          8.84410        1.23338        1.13433
C          8.32083        2.07758        2.03649
C          7.09169        2.91915        1.78050
C          6.56459        2.82418        0.35839
C          6.99391        1.88013       -0.50138
C          7.99767        0.96311       -0.02210
C          8.19735       -0.33783       -0.27133
C          7.44927       -1.24628       -1.10293
C          7.60767       -2.56525       -0.87381
C          7.30749        4.34452        2.21137
C          8.49377        4.97939        2.25120
C          8.68637        6.28589        2.79661
S          7.36968        7.16358        3.50209
C          8.30707        8.55255        3.84027
C          9.62436        8.33603        3.51508
C          9.84256        7.04866        2.88918
C         11.09251        6.65303        2.37952
C         12.09220        7.64546        2.52788
C         11.87286        8.91186        3.14889
C         10.62982        9.29588        3.67124
F         10.44050       10.51023        4.19781
C          7.66247        9.63303        4.47401
C          7.02758       10.65391        3.88485
C          6.33272       11.53873        4.88789
O          6.39212       11.44477        6.09884
C          5.53976       12.51461        4.12829
C          5.73031       12.29291        2.75116
C          6.72121       11.17151        2.53555
C          7.24252       10.85316        1.32202
C          8.21263        9.84885        1.04039
N          8.98457        9.09558        0.62415
C          6.90583       11.54905        0.11837
N          6.66284       12.09726       -0.87423
C          5.00925       13.08526        1.86786
C          4.17979       14.10252        2.35327
C          4.01800       14.33025        3.72806
C          4.69280       13.51186        4.65976
C          4.47125       13.75138        6.03612
C          3.62602       14.77450        6.46877
C          2.98581       15.58403        5.53955
C          3.17960       15.36147        4.17769
H         11.44252       -7.70485        5.94427
H         11.74311       -9.52354        7.54855
H          6.26894      -10.50964        7.21505
H          6.63540      -12.09346        9.05904
H          8.90547      -12.42843        9.99668
H         10.81829      -11.18529        9.08365
H          6.12821       -7.73062        2.83198
H          8.79701       -8.90802        1.64741
H         10.54556       -9.15609       -0.12515
H         11.36150       -7.25594       -1.46404
H         10.14758       -2.65253        1.48671
H         11.15156       -0.89950        2.59742
H         13.17041        0.53154        2.24503
H         12.26999        1.53015        1.10569
H         12.81161       -1.34232        0.79066
H         13.62675       -0.12297        0.06535
H         11.76417        0.67015        4.23717
H         10.01790        0.65883        4.12465
H         11.75794        2.74152        2.92430
H         10.97675        2.86232        4.37345
H          8.67355        2.10952        3.05545
H          6.30853        2.51156        2.43666
H          5.77177        3.50502        0.06453
H          6.58543        1.77801       -1.49875
H          6.75519       -0.86053       -1.83444
H          7.02085       -3.28072       -1.44225
H          6.39980        4.81791        2.57367
H          9.37358        4.46334        1.87416
H         11.29352        5.71650        1.87555
H         13.08381        7.44238        2.12188
H         12.69299        9.62520        3.19747
H          7.66831        9.55868        5.56361
H          5.03585       12.97101        0.79194
H          3.64736       14.72096        1.63046
H          4.95530       13.14050        6.79582
H          3.47299       14.93655        7.53262
H          2.33305       16.38612        5.87217
H          2.66537       16.00371        3.46511
