116

C        -10.72696        4.63091       -9.15410
C        -11.99771        5.09810       -9.24197
C        -12.65128        5.35788      -10.48584
N        -13.19057        5.58249      -11.48497
C        -12.79066        5.40819       -8.10096
N        -13.44960        5.64553       -7.17588
C         -9.83377        4.29607      -10.31587
C         -8.54903        4.05801       -9.83206
C         -7.48142        3.61413      -10.60817
C         -7.70206        3.43843      -11.99012
C         -8.97330        3.72230      -12.50423
C        -10.05584        4.13821      -11.68182
S         -9.01616        3.48799      -14.21502
C         -7.38814        2.98686      -14.26701
C         -6.80985        2.98686      -13.02005
C         -8.48903        4.27602       -8.38623
O         -7.45998        4.31094       -7.74421
C         -9.91355        4.41913       -7.91644
C        -10.29454        4.22290       -6.63586
C         -9.41463        3.91039       -5.54181
S         -9.53475        4.90495       -4.13191
C         -8.13810        4.23270       -3.35916
C         -7.64131        3.18383       -4.12306
C         -8.45808        2.92353       -5.32656
C         -8.18950        1.84070       -6.20251
C         -9.05559        1.42689       -7.25878
N         -9.75767        1.09978       -8.12362
C         -6.99172        1.14961       -5.93135
C         -6.17725        1.43013       -4.80361
C         -6.49514        2.40661       -3.82682
C         -5.71036        2.51899       -2.64143
N         -5.04895        2.50894       -1.68808
C         -7.71610        4.85061       -2.12199
C         -6.80536        5.85352       -2.21651
C         -6.31978        6.53578       -1.02496
C         -5.45231        7.57283       -0.85497
C         -4.79495        8.54376       -1.82986
C         -3.24422        8.47819       -1.86148
N         -2.70637        7.16546       -2.20265
C         -5.29750        8.54056       -3.30301
N         -6.73090        8.79382       -3.47250
C         -5.28373        7.67131        0.60734
C         -4.40659        8.35446        1.36297
C         -4.34674        8.23648        2.88295
C         -5.47603        7.39829        3.46783
C         -6.35779        6.71413        2.71239
C         -6.21664        6.76746        1.27713
C         -6.82840        6.08309        0.29660
C         -7.85606        5.06753        0.35373
C         -8.26451        4.48955       -0.79592
C         -4.33595        9.62544        3.47889
C         -3.21803       10.27457        3.84811
C         -3.27216       11.63488        4.27434
S         -3.57017       12.84069        3.07895
C         -3.26237       14.16387        4.14081
C         -3.12740       13.69847        5.44159
C         -3.14431       12.22724        5.51888
C         -3.06465       11.53008        6.74800
C         -3.11960       10.10992        6.87633
N         -3.16350        8.95959        7.02287
C         -2.98842       12.36565        7.88483
C         -2.97036       13.78610        7.81491
C         -3.03222       14.50740        6.60158
C         -3.00442       15.93174        6.59078
N         -2.94799       17.09052        6.59162
C         -3.38827       15.47085        3.58378
C         -2.39659       16.33930        3.33484
C         -0.93016       16.35695        3.47550
C         -0.04405       15.40201        3.11182
C          1.36848       15.57642        3.20978
N          2.51829       15.69887        3.29646
C         -0.40817       14.19648        2.45367
N         -0.60589       13.22065        1.85424
C         -0.55662       17.78195        3.74722
C         -1.64759       18.59406        3.42855
C         -2.82026       17.76493        3.09847
O         -3.90873       18.16578        2.74278
C         -1.61118       19.98427        3.45057
C         -0.39148       20.60569        3.80744
C          0.69086       19.79627        4.17899
C          0.62043       18.38135        4.18329
S          2.07121       20.74471        4.59610
C          1.26615       22.20521        4.25202
C         -0.03535       21.99662        3.86068
H         -6.51859        3.39442      -10.15586
H        -11.01731        4.29755      -12.15405
H         -6.93061        2.71203      -15.20799
H         -5.78274        2.68759      -12.84741
H        -11.33711        4.29779       -6.34770
H         -6.67219        0.35881       -6.61261
H         -5.26881        0.83549       -4.67899
H         -6.41097        6.13966       -3.18106
H         -5.04420        9.54815       -1.45110
H         -2.81538        8.79530       -0.90959
H         -2.86932        9.20437       -2.59381
H         -3.00884        6.49184       -1.49472
H         -1.68946        7.19498       -2.13960
H         -5.03054        7.60463       -3.80476
H         -4.76662        9.32922       -3.85063
H         -7.11338        9.26574       -2.65566
H         -6.88207        9.40280       -4.27436
H         -3.65605        8.99623        0.92327
H         -3.40692        7.72537        3.13838
H         -5.53860        7.33754        4.55207
H         -7.14773        6.12289        3.15973
H         -8.29225        4.79943        1.30874
H         -9.04391        3.73351       -0.77052
H         -5.30078       10.12379        3.53819
H         -2.24098        9.80047        3.77450
H         -2.95515       11.90559        8.87548
H         -2.91786       14.33950        8.75586
H         -4.41714       15.80385        3.43432
H         -2.48939       20.56810        3.18773
H          1.49126       17.82073        4.50196
H          1.78389       23.14895        4.35834
H         -0.70837       22.80722        3.60687
