127

C          8.34590       -1.38517        1.45080
C          7.90910       -1.58881        0.17412
C          7.63649       -0.35767       -0.54014
N          7.14295       -0.35460       -1.81579
C          6.96143       -1.62764       -2.30360
C          6.37012       -1.71743       -3.66234
O          5.99238       -0.73827       -4.29229
C          6.22563       -3.05568       -4.27152
C          6.57931       -4.16766       -3.62726
C          7.12117       -4.12602       -2.25776
O          7.43355       -5.17618       -1.71022
C          7.27520       -2.80115       -1.61035
N          7.75353       -2.83825       -0.33284
C          7.94722        0.77830        0.20420
S          8.45875        0.27376        1.79881
C          7.89551        2.24006       -0.10961
C          8.29430        3.21564        0.83388
C          8.16243        4.57904        0.56911
C          7.70028        5.00143       -0.68945
C          7.34443        4.07691       -1.65545
C          7.43426        2.70614       -1.36082
C          7.65950        6.44242       -0.72184
C          8.03317        6.94685        0.53827
C          8.44117        5.79554        1.48649
C          9.95815        5.88046        1.82378
C         10.41533        7.14041        2.56125
C          7.52007        5.79709        2.74167
C          7.79994        4.74070        3.81047
C          8.01348        8.31664        0.77956
C          7.68693        9.20068       -0.25861
C          7.36462        8.68169       -1.52797
C          7.32917        7.30128       -1.75880
C          7.77916       10.64364        0.00874
C          7.03570       11.58483       -0.59526
C          7.17864       13.02174       -0.33236
C          6.06242       13.88116       -0.45919
N          4.68609       13.66503       -0.47776
C          4.05205       12.64630        0.35636
C          3.62300       13.20831        1.70402
C          4.02521       14.78924       -0.97235
C          4.94582       15.83709       -0.81320
C          6.20532       15.26991       -0.44610
C          7.46517       15.83078       -0.15061
C          8.56312       14.99575        0.05015
C          8.42765       13.61883       -0.08476
C          4.53194       17.16628       -1.04058
C          3.23359       17.42968       -1.45426
C          2.33764       16.38472       -1.64943
C          2.70065       15.04465       -1.42090
C          1.69106       13.99103       -1.62054
C          1.93960       12.77258       -2.12579
C          0.95109       11.71033       -2.18931
C          1.18138       10.43011       -2.52807
C          0.15827        9.41098       -2.57291
C          0.59330        8.22414       -3.02048
C          2.00217        8.20831       -3.37641
S          2.73311        9.76560       -2.98050
C          2.66519        7.19252       -3.96901
C          2.11712        5.89429       -4.31977
C          2.96109        5.11711       -5.01979
C          4.22685        5.75065       -5.30137
S          4.34160        7.30185       -4.50858
C          5.18055        5.22169       -6.08203
C          6.40845        5.89505       -6.47359
C          7.65970        5.44749       -6.28907
C          8.98255        6.02041       -6.66752
C          9.22603        7.14534       -7.38082
C         10.53474        7.55605       -7.77770
N         11.58932        7.89148       -8.12641
C          8.20359        8.02891       -7.83360
N          7.39274        8.76319       -8.20637
C         10.01991        5.08397       -6.12065
C          9.38067        4.01176       -5.49811
C          7.92549        4.15791       -5.56391
O          7.13261        3.37279       -5.08736
C         10.03852        2.96856       -4.85155
C         11.44712        3.02002       -4.78829
C         12.10483        4.09554       -5.40138
C         11.41070        5.12598       -6.08681
S         13.81513        3.98896       -5.17755
C         13.66939        2.58367       -4.25534
C         12.37999        2.13587       -4.14668
Br        15.12938        1.73380       -3.44683
H          8.59849       -2.13176        2.19031
H          5.81441       -3.08556       -5.27559
H          6.47982       -5.15042       -4.07512
H          8.70651        2.92687        1.79410
H          6.96933        4.39133       -2.62399
H          7.12152        2.01862       -2.14224
H         10.55082        5.80753        0.90085
H         10.24870        5.01312        2.42816
H         10.42511        8.01037        1.89747
H         11.44296        7.02092        2.91838
H          9.78682        7.36783        3.42671
H          6.47201        5.69223        2.43093
H          7.58078        6.77298        3.24126
H          7.07389        4.83734        4.62501
H          8.79717        4.85234        4.24559
H          7.69455        3.72320        3.43322
H          8.26414        8.70457        1.76256
H          7.14066        9.34912       -2.35683
H          7.05593        6.92219       -2.73504
H          8.50755       10.92402        0.76610
H          6.28521       11.31324       -1.33381
H          4.74597       11.81980        0.51419
H          3.20027       12.22148       -0.16141
H          4.49805       13.47949        2.30384
H          3.04388       12.46404        2.25736
H          3.00429       14.10465        1.59326
H          7.58469       16.90840       -0.09367
H          9.53608       15.42576        0.27154
H          9.32108       13.00382       -0.00489
H          5.23715       17.98491       -0.90291
H          2.92112       18.45807       -1.63589
H          1.32963       16.62287       -1.99262
H          0.67853       14.26926       -1.33687
H          2.95123       12.53154       -2.44795
H         -0.06205       11.99539       -1.91150
H         -0.86835        9.60581       -2.29403
H         -0.05828        7.37166       -3.14638
H          1.12157        5.57730       -4.05227
H          2.71328        4.12622       -5.37494
H          5.03331        4.23148       -6.50953
H          6.20023        6.84022       -6.96283
H          9.47526        2.16900       -4.37676
H         11.99820        5.92566       -6.52032
H         12.09393        1.24333       -3.60351
