105

C         -0.83934        0.11336        1.79208
C         -0.92957       -1.06713        2.45274
C          0.13112       -2.00399        2.49847
N          0.99896       -2.79018        2.53247
C         -2.08527       -1.43583        3.20615
N         -3.02601       -1.73715        3.81075
C          0.35117        0.64813        1.06169
C          0.17587        2.02321        0.87638
C          1.06116        2.83879        0.18263
C          2.19293        2.22789       -0.39880
C          2.38027        0.84886       -0.22152
C          1.47361        0.03822        0.51268
S          3.81584        0.31320       -1.02297
C          4.14657        1.86168       -1.60674
C          3.22977        2.79871       -1.21276
Br         5.61703        2.25539       -2.69795
C         -1.12597        2.45700        1.39828
O         -1.51909        3.60349        1.47484
C         -1.85027        1.19223        1.76166
C         -3.19166        1.12528        1.79153
C         -4.07709        2.27704        1.54589
C         -4.54190        3.12807        2.54466
C         -5.44939        4.21940        2.27679
N         -5.91931        4.89883        3.35167
C         -5.38746        4.67853        4.58862
C         -4.46005        3.69412        4.79845
N         -4.07789        2.87961        3.78898
C         -3.79429        3.48435        6.04906
N         -3.24446        3.33372        7.05960
C         -5.78494        5.60324        5.61515
N         -6.07973        6.36400        6.44859
C         -5.82766        4.60145        0.94803
C         -5.29665        3.77570       -0.10253
C         -4.43688        2.57653        0.21207
N         -4.06295        1.87724       -0.87468
S         -4.71942        2.65261       -2.17837
N         -5.44952        3.92566       -1.42953
C         -6.71638        5.77285        0.60158
S         -7.97509        5.52425       -0.53622
C         -6.77594        7.09310        1.07306
C         -5.82434        7.66048        2.09745
C         -4.54124        8.26640        1.54142
N         -3.68846        8.76020        2.63124
C         -7.89873        7.86586        0.47490
C         -8.30241        9.30853        0.84926
C         -8.73797        9.55108        2.30977
N         -9.17560       10.93625        2.54776
C         -8.49393        7.16211       -0.58672
C         -9.49518        7.62665       -1.53326
C         -9.66794        7.26510       -2.82120
C        -10.63979        7.86634       -3.72605
C        -10.53405        7.46815       -5.00801
C         -9.45587        6.52695       -5.23030
S         -8.73207        6.09047       -3.68257
C         -9.00651        6.00107       -6.38546
C         -9.50131        6.16156       -7.73872
C         -8.96536        5.28574       -8.61271
C         -7.99822        4.38349       -8.01154
S         -7.62428        4.92238       -6.40644
C         -7.51027        3.24629       -8.54094
C         -6.64484        2.28537       -7.86121
C         -6.72198        0.94378       -8.05631
C         -5.82944        0.32520       -7.10186
C         -5.64630       -0.96734       -6.77669
C         -4.71993       -1.23066       -5.69119
C         -4.36914       -2.38397       -5.09051
C         -3.36321       -2.11395       -4.05018
C         -3.10419       -0.78699       -4.01693
C         -3.94680       -0.17592       -5.01588
C         -4.11086        1.11250       -5.36266
C         -5.10378        1.37531       -6.38530
C         -5.57367        2.53346       -6.86791
C         -2.70034       -3.06321       -3.19398
C         -3.33427       -3.85165       -2.31811
H          0.86241        3.90062        0.05265
H          1.66360       -1.02744        0.57589
H          3.27423        3.84458       -1.49449
H         -3.72849        0.19078        1.91795
H         -5.49578        6.88605        2.77209
H         -6.33163        8.35875        2.75557
H         -4.76132        9.08863        0.85542
H         -3.99037        7.50099        0.98310
H         -3.98728        8.39105        3.53386
H         -2.73443        8.42679        2.49341
H         -9.16325        9.60476        0.23682
H         -7.49171        9.98731        0.56267
H         -7.93723        9.35505        3.01895
H         -9.56340        8.88078        2.56984
H         -8.36504       11.50027        2.81549
H         -9.77793       10.95432        3.37306
H        -10.14174        8.42362       -1.17746
H        -11.36237        8.59916       -3.39196
H        -11.16151        7.83817       -5.80741
H        -10.25257        6.89169       -8.00535
H         -9.24113        5.22859       -9.65686
H         -7.86142        2.93758       -9.52290
H         -7.38080        0.40643       -8.71738
H         -6.17341       -1.77748       -7.26053
H         -4.73901       -3.36868       -5.32870
H         -2.42101       -0.26903       -3.36450
H         -3.56885        1.92641       -4.90175
H         -5.25294        3.51291       -6.54992
H         -1.61764       -3.11499       -3.28162
H         -4.41130       -3.81629       -2.18530
H         -2.77519       -4.54556       -1.69805
