134

C         14.62996       -8.98361       -4.04085
C         13.54496       -8.38636       -3.54656
C         13.09620       -7.05352       -3.85858
C         12.02907       -6.67168       -3.14215
C         11.56507       -7.67542       -2.19363
S         12.50103       -9.16226       -2.39468
C         10.60544       -7.52266       -1.25924
C          9.81996       -6.32451       -1.01314
C          8.99996       -6.41314        0.04306
C          9.05570       -7.70002        0.71225
S         10.16104       -8.77690       -0.10521
C          8.33934       -8.00828        1.80509
C          8.37324       -9.29316        2.41713
S          9.50473       -9.62740        3.66546
C          8.96972      -11.24011        3.81700
C          7.92096      -11.52509        2.96994
C          7.57607      -10.39697        2.15903
C          6.48094      -10.48397        1.14279
C          6.27328      -11.93694        0.66557
C          6.03800      -12.89559        1.88071
O          5.87170      -14.24575        1.39163
C          5.58350      -15.20832        2.39801
C          7.25326      -12.85622        2.84168
N          5.14526      -11.96590       -0.30342
C          5.44052      -11.77446       -1.66738
C          4.48796      -11.16771       -2.50882
C          4.71840      -11.07358       -3.88194
C          5.93415      -11.55121       -4.42410
C          6.87345      -12.17041       -3.62058
C          6.60175      -12.30866       -2.25920
C          5.89618      -11.47999       -5.86281
C          4.60059      -11.10953       -6.25731
C          3.80471      -10.56900       -5.02319
C          3.89771       -9.01764       -5.15411
C          3.24458       -8.15658       -4.08379
C          2.37193      -11.16047       -5.04991
C          1.37919      -10.79924       -3.95368
C          4.20363      -11.28648       -7.58083
C          5.13420      -11.77407       -8.51613
C          6.48129      -11.92268       -8.14277
C          6.86478      -11.79697       -6.80333
C          4.69500      -12.11710       -9.87716
C          4.33443      -13.31047      -10.39699
C          4.28210      -14.68909       -9.83396
C          4.45462      -15.84371      -10.62536
C          4.58470      -17.17102      -10.05587
N          4.65266      -18.23479      -10.89140
C          4.56458      -18.04961      -12.23359
C          4.47681      -16.78760      -12.76300
N          4.45766      -15.68549      -11.97103
C          4.35854      -16.55141      -14.17390
N          4.24848      -16.37931      -15.31577
C          4.53052      -19.23842      -13.03206
N          4.50135      -20.18077      -13.70049
C          4.60694      -17.41871       -8.65760
C          4.16240      -16.31353       -7.87562
C          3.93927      -14.95064       -8.48459
N          3.33675      -14.11187       -7.63136
S          3.26270      -14.85253       -6.16382
N          3.90702      -16.31357       -6.55540
C          5.01254      -18.72138       -8.03516
C          6.02398      -19.51166       -8.62603
C          6.40160      -20.73156       -8.06968
C          5.83835      -21.17537       -6.86044
C          4.87921      -20.41311       -6.22765
C          4.46306      -19.21091       -6.82549
C          6.44464      -22.42802       -6.47166
C          7.39964      -22.79267       -7.44249
C          7.42016      -21.76257       -8.59198
C          8.83885      -21.17656       -8.80315
C          9.43768      -20.42739       -7.61051
C          6.86693      -22.46669       -9.87147
C          6.80504      -21.63990      -11.15370
C          8.16067      -23.94590       -7.28519
C          7.96437      -24.75682       -6.14230
C          6.98598      -24.39230       -5.20633
C          6.22732      -23.22486       -5.35961
C          8.73617      -25.98706       -5.94628
C         10.00492      -26.16027       -6.35647
H         15.28891       -8.48611       -4.74116
H         14.89750       -9.99216       -3.73784
H         13.59084       -6.43216       -4.59186
H         11.57363       -5.69732       -3.24528
H          9.89178       -5.43438       -1.62111
H          8.34827       -5.62085        0.37223
H          7.66751       -7.27808        2.24451
H          9.45424      -11.90853        4.51627
H          6.70593       -9.84636        0.27954
H          5.55663      -10.09717        1.59189
H          7.19955      -12.28554        0.20055
H          5.12012      -12.59552        2.40420
H          5.52824      -16.19225        1.92396
H          4.62647      -14.99225        2.88010
H          6.37836      -15.25707        3.14792
H          8.00399      -13.58198        2.49941
H          6.93332      -13.18917        3.83693
H          4.35226      -11.40836       -0.00030
H          3.57041      -10.78339       -2.07800
H          7.76706      -12.62148       -4.03843
H          7.30319      -12.89990       -1.67886
H          3.48874       -8.70663       -6.12528
H          4.95866       -8.72620       -5.18168
H          2.19072       -7.98016       -4.31348
H          3.71984       -7.16922       -4.06650
H          3.33124       -8.58118       -3.08223
H          2.44021      -12.25337       -5.05652
H          1.89186      -10.88387       -5.99742
H          1.70015      -11.13632       -2.96851
H          0.42351      -11.29628       -4.15706
H          1.16242       -9.73334       -3.91419
H          3.17060      -11.13395       -7.87640
H          7.23500      -12.16928       -8.88650
H          7.89400      -11.97301       -6.50760
H          4.69641      -11.25393      -10.54287
H          4.10224      -13.28822      -11.46467
H          6.52105      -19.17937       -9.53178
H          4.44698      -20.72617       -5.28233
H          3.68947      -18.65868       -6.29644
H          8.83303      -20.48140       -9.65045
H          9.53224      -21.98450       -9.07240
H          8.84731      -19.54340       -7.35118
H         10.44646      -20.08037       -7.86112
H          9.52063      -21.06243       -6.72364
H          5.85158      -22.83808       -9.67183
H          7.47059      -23.35667      -10.09415
H          6.29051      -20.69034      -11.01768
H          6.24351      -22.18696      -11.91928
H          7.80191      -21.44033      -11.55610
H          8.89335      -24.21687       -8.04464
H          6.81430      -25.01279       -4.33347
H          5.48849      -22.95216       -4.61000
H          8.23631      -26.78353       -5.41219
H         10.56451      -25.38231       -6.86632
H         10.52520      -27.10025       -6.16778
