128

C        -12.29049      -18.50511        9.79676
C        -13.06068      -18.76390       10.92371
C        -14.46687      -18.87646       10.79724
C        -15.23707      -19.17378       11.97141
N        -15.84644      -19.41799       12.92826
C        -15.09931      -18.69815        9.54604
C        -16.52722      -18.76058        9.40151
N        -17.67599      -18.79471        9.25974
C        -14.32790      -18.43686        8.41267
C        -12.95259      -18.35928        8.57105
C        -11.99354      -18.06273        7.50750
O        -12.23391      -18.18370        6.32659
C        -10.72134      -17.67868        8.20615
C        -10.82966      -18.28290        9.55800
C         -9.81119      -18.73098       10.33049
C        -10.03689      -19.46196       11.53235
N        -10.25290      -20.06330       12.49840
C         -8.44555      -18.58749        9.94863
N         -7.33528      -18.45940        9.63899
C         -9.81713      -16.79918        7.73039
C         -9.86232      -16.05619        6.44854
C         -8.66340      -15.70269        5.80220
C         -8.72561      -14.96335        4.61948
C         -9.96691      -14.59474        4.06339
C        -11.14872      -14.92248        4.69098
C        -11.08258      -15.60475        5.90335
C         -9.75501      -13.79948        2.88139
C         -8.37578      -13.59542        2.69723
C         -7.58182      -14.40766        3.73938
C         -6.58808      -13.54539        4.55389
C         -7.20723      -12.40711        5.36297
C         -6.86983      -15.62088        3.06994
C         -5.81851      -15.28886        2.01624
C         -7.91279      -12.74488        1.69238
C         -8.82927      -12.15595        0.80802
C        -10.20784      -12.43491        0.97780
C        -10.67744      -13.23360        2.02334
C         -8.39740      -11.24256       -0.25558
C         -9.22917      -10.23668       -0.71868
O         -8.65179       -9.53626       -1.71906
C         -7.42326      -10.06710       -1.90565
C         -7.17054      -11.08980       -1.00613
C         -5.94055      -11.88066       -0.97557
O         -5.98493      -13.08349       -0.73516
C         -4.68813      -11.17142       -1.25303
C         -4.31365       -9.85414       -1.06603
C         -2.96611       -9.60222       -1.47637
C         -2.32513      -10.73072       -1.95870
S         -3.37504      -12.08502       -1.88064
C         -0.93959      -10.87543       -2.45180
C          0.06756      -10.04240       -1.94746
C          1.36423      -10.17456       -2.43606
C          1.69797      -11.11709       -3.42915
C          0.72170      -11.95531       -3.92873
C         -0.58976      -11.82694       -3.44045
C          3.10650      -10.99162       -3.75123
C          3.67030       -9.97151       -2.95550
C          2.59859       -9.36013       -2.04593
C          2.36066       -7.85423       -2.34580
C          1.89736       -7.53082       -3.76938
C          2.95030       -9.56217       -0.54758
C          3.06936      -11.01988       -0.09583
C          5.02274       -9.65625       -3.03083
C          5.82305      -10.33250       -3.95536
C          5.25736      -11.35066       -4.75186
C          3.89821      -11.68731       -4.64942
C          7.25262      -10.01811       -4.08568
C          7.79523       -9.16762       -4.97043
C          9.26406       -9.23891       -5.25337
O         10.14232       -9.71306       -4.56665
C          9.42741       -8.66851       -6.60661
C         10.61410       -8.56472       -7.31580
C         10.55956       -8.01081       -8.60108
C          9.32451       -7.61577       -9.15406
C          8.13070       -7.74162       -8.40988
C          8.18988       -8.23107       -7.11312
C          7.20509       -8.30333       -5.99711
C          6.23266       -7.37784       -5.81074
C          5.86538       -6.95888       -4.49705
N          5.65586       -6.52705       -3.44464
C          5.70242       -6.58430       -6.86212
N          5.27589       -5.95421       -7.74026
C          9.24158       -7.04030      -10.46763
N          9.15108       -6.56850      -11.52425
C         11.78947       -7.83966       -9.32393
N         12.79093       -7.69709       -9.88739
H        -12.61684      -18.87113       11.91156
H        -14.77655      -18.27618        7.43368
H         -8.96135      -16.51184        8.33860
H         -7.69945      -15.98427        6.21723
H        -12.11167      -14.64104        4.28010
H        -12.02711      -15.78278        6.40667
H         -5.84100      -13.10375        3.88390
H         -6.03501      -14.18833        5.25113
H         -7.74083      -11.69873        4.72310
H         -6.41766      -11.85492        5.88368
H         -7.89961      -12.77817        6.12432
H         -7.61346      -16.27777        2.59715
H         -6.38390      -16.22814        3.84524
H         -6.26186      -14.78435        1.15692
H         -5.36812      -16.20984        1.63271
H         -5.01562      -14.66560        2.41814
H         -6.84923      -12.55474        1.60720
H        -10.94933      -12.02327        0.29676
H        -11.74247      -13.39719        2.15082
H        -10.22834       -9.91507       -0.45587
H         -6.85839       -9.62607       -2.71621
H         -4.95695       -9.09111       -0.64257
H         -2.49242       -8.62835       -1.41563
H         -0.14208       -9.29798       -1.18528
H          0.94718      -12.69699       -4.68729
H         -1.34910      -12.48373       -3.85973
H          3.27329       -7.28273       -2.14112
H          1.59900       -7.46454       -1.65717
H          2.66864       -7.76771       -4.50754
H          1.66687       -6.46404       -3.85440
H          0.98663       -8.07444       -4.03968
H          2.18480       -9.08395        0.07725
H          3.89566       -9.05389       -0.31821
H          2.11017      -11.54228       -0.17063
H          3.38006      -11.06243        0.95265
H          3.80821      -11.57222       -0.68372
H          5.43945       -8.89437       -2.37854
H          5.88035      -11.91009       -5.44810
H          3.48493      -12.48341       -5.26061
H          7.90119      -10.64405       -3.47042
H         11.55133       -8.88771       -6.86713
H          7.19322       -7.42773       -8.86511
