95

C         -4.67259       -2.40715       -0.67979
C         -3.42590       -2.83499       -0.30063
C         -2.96310       -4.15974       -0.53937
N         -2.51920       -5.21314       -0.69733
C         -2.45080       -2.01232        0.38322
N         -1.71185       -1.30484        0.92933
C         -5.73869       -3.19734       -1.37435
C         -6.87307       -2.43590       -1.58272
C         -8.04238       -2.86928       -2.22383
C         -8.03274       -4.18144       -2.66543
C         -6.90239       -4.97244       -2.46322
C         -5.74796       -4.51056       -1.82791
S         -7.15882       -6.49659       -3.08502
C         -8.72233       -6.16361       -3.62092
C         -9.06855       -4.84679       -3.32292
Br        -9.81980       -7.44304       -4.49948
C         -6.66755       -1.16174       -1.10360
O         -7.49837       -0.31707       -1.38032
C         -5.27872       -1.07231       -0.49696
C         -4.65134       -0.01976        0.03907
C         -5.30281        1.19926        0.24726
C         -4.67670        2.41247        0.21689
C         -5.51438        3.38739        0.56154
C         -6.70291        2.88261        0.76605
S         -6.91367        1.29609        0.62776
C         -7.56745        3.83084        1.08932
C         -6.96725        5.02671        1.27037
C         -5.53614        4.83838        0.73548
C         -4.46679        5.60366        0.30560
C         -3.29186        4.96406       -0.28217
N         -2.34668        4.48459       -0.75094
C         -4.34111        7.04296        0.26044
N         -4.13472        8.18127        0.17680
C         -7.95087        5.89684        1.72067
C         -9.21817        5.31820        1.47842
S         -9.17469        3.68716        1.15438
C        -10.48887        6.00512        1.43054
C        -10.53669        7.39924        1.63203
C        -11.73719        8.07197        1.54188
C        -12.90580        7.34846        1.28611
C        -12.85946        5.95699        1.14704
C        -11.67915        5.29878        1.20935
N        -11.78169        3.96610        1.04730
Se       -13.46957        3.44730        0.76306
N        -13.92102        5.16780        0.90673
C        -14.14028        8.04380        1.14214
C        -14.43615        9.23743        1.77585
C        -15.66471        9.66153        1.37896
C        -16.21403        8.82423        0.53210
S        -15.37744        7.48451        0.14295
C        -17.47208        9.22040        0.27817
C        -17.88895       10.26086        0.95804
C        -16.57477       10.79270        1.60400
C        -16.05824       11.96503        2.14841
C        -14.61443       12.04768        2.33562
N        -13.46515       12.12405        2.48814
C        -16.78026       13.17726        2.36805
N        -17.30624       14.18720        2.56532
C        -19.28145       10.28230        0.61002
C        -19.79348        9.33917       -0.23039
S        -18.59568        8.53151       -0.59131
C        -21.10859        9.11629       -0.80940
C        -22.38053        9.38826       -0.38883
C        -23.05033       10.00416        0.85056
C        -22.54646       10.36829        2.12458
C        -23.40531       10.88823        3.14317
N        -24.11654       11.30866        3.95240
C        -21.25802       10.10026        2.78659
N        -20.26926        9.92353        3.38299
C        -24.53108       10.07229        0.45620
C        -24.72463        9.56015       -0.82833
C        -23.46773        9.09256       -1.34714
O        -23.31919        8.61371       -2.46295
C        -25.97079        9.56608       -1.47925
C        -27.05924       10.09112       -0.77123
C        -26.88591       10.55925        0.52565
C        -25.65258       10.55647        1.16594
S        -28.33807       11.12249        1.13930
C        -29.21488       10.77177       -0.25631
C        -28.37834       10.21301       -1.22403
Br       -31.08293       11.09298       -0.43073
H         -8.90595       -2.21117       -2.36729
H         -4.91589       -5.16301       -1.71075
H        -10.02463       -4.40057       -3.56961
H         -3.63395        0.00591        0.36858
H         -3.70481        2.56974       -0.03861
H         -7.89997        5.85860        2.83357
H         -9.65165        7.98898        1.82912
H        -11.73818        9.15245        1.66618
H        -13.79091        9.73982        2.45920
H        -19.98542       10.90609        0.78790
H        -20.99855        8.66467       -1.77329
H        -26.07414        9.19836       -2.49330
H        -25.62157       10.94791        2.15658
H        -28.71575        9.90694       -2.20560
