94

C         -8.22720       -0.86201       -5.42707
C         -9.27793       -1.72003       -5.40687
C         -9.60442       -2.56465       -6.50835
N         -9.86961       -3.25383       -7.39881
C        -10.18732       -1.79699       -4.31100
N        -10.93425       -1.87198       -3.42284
C         -7.30853       -0.61409       -6.58652
C         -6.62911        0.58216       -6.35945
C         -5.69113        1.13896       -7.22007
C         -5.40111        0.44043       -8.40760
C         -6.06084       -0.77417       -8.65098
C         -7.01383       -1.32388       -7.74875
S         -5.54482       -1.46030      -10.15287
C         -4.48971       -0.17687      -10.45415
C         -4.48808        0.76883       -9.46555
Br        -3.42265       -0.05838      -11.98903
C         -6.98278        1.14785       -5.05929
O         -6.59215        2.21922       -4.64517
C         -7.86430        0.13441       -4.38686
C         -8.10090        0.18319       -3.06136
C         -7.56138        1.24494       -2.10370
C         -8.52241        2.40501       -1.89934
N         -9.45542        2.74480       -2.79720
S        -10.24444        4.06229       -2.12882
N         -9.42390        4.20214       -0.67155
C         -8.50004        3.23548       -0.70867
C         -7.53703        3.01507        0.43586
C         -7.14932        1.54169        0.45263
C         -7.16405        0.70304       -0.73657
N         -6.72879       -0.54846       -0.54796
S         -6.36048       -0.63205        1.08828
N         -6.74022        0.93039        1.56958
C         -6.32320        3.90276        0.28098
O         -5.29814        3.35511       -0.44887
C         -4.28662        4.24801       -0.47177
C         -4.63639        5.38059        0.22134
N         -3.72876        6.46498        0.36790
O         -3.28142        6.95868       -0.67435
O         -3.42841        6.80046        1.52006
C         -5.97613        5.19312        0.68342
N         -6.80002        6.04568        1.35563
C         -6.56181        7.33926        1.78759
C         -7.36276        8.15133        2.48734
C         -6.98940        9.45306        2.98584
C         -7.91884       10.00545        3.77883
C         -9.09732        9.17337        3.95799
S         -8.97526        7.71983        2.95702
C        -10.10710        9.38197        4.82243
C        -10.22817       10.46542        5.77950
C        -11.16214       10.24523        6.71921
C        -11.84754        8.98032        6.56095
S        -11.43885        8.24988        5.03386
C        -12.64719        8.41742        7.47967
C        -13.27739        7.10839        7.40375
C        -12.67710        5.91351        7.27726
C        -13.49427        4.67643        7.01448
O        -14.68874        4.52813        7.16621
C        -12.54135        3.67157        6.49291
C        -12.80333        2.35794        6.14081
C        -11.74039        1.57852        5.65344
C        -10.47038        2.18391        5.41367
C         -9.42933        1.41468        4.87657
C         -9.61265        0.05539        4.65511
C        -10.82412       -0.55985        4.93913
C        -11.89269        0.20223        5.41712
F         -8.59492       -0.67847        4.18641
C        -10.24829        3.52356        5.77286
C        -11.25884        4.22723        6.41029
C        -11.27142        5.50215        7.17190
C        -10.23469        5.92531        7.93615
C        -10.39592        6.89566        8.96657
N        -10.52780        7.62972        9.85517
C         -8.94785        5.31569        7.89258
N         -7.90482        4.80468        7.85913
H         -5.19340        2.07208       -6.96969
H         -7.46330       -2.27971       -7.99315
H         -3.87276        1.66091       -9.47980
H         -8.68348       -0.59103       -2.57078
H         -6.62223        1.65708       -2.48652
H         -8.04391        3.24650        1.38226
H         -3.39441        3.94036       -0.99950
H         -7.74957        5.75098        1.60091
H         -5.58539        7.73130        1.53992
H         -6.03001        9.90780        2.77419
H         -7.78256       10.96077        4.26663
H         -9.59502       11.34156        5.76851
H        -11.35717       10.91820        7.54368
H        -12.86152        8.96375        8.39827
H        -14.36740        7.14735        7.43638
H        -13.79817        1.94485        6.28385
H         -8.45563        1.84725        4.66098
H        -10.92743       -1.63031        4.79092
H        -12.83542       -0.29600        5.63501
H         -9.27191        3.96912        5.60169
