101

C          6.57094       -4.08875       -5.84273
C          7.33949       -4.85192       -6.61880
C          8.68676       -4.54466       -7.02195
C          9.28035       -5.54435       -7.68433
C          8.45125       -6.73426       -7.81842
S          6.82153       -6.39782       -7.23055
C          8.87044       -7.94518       -8.23149
C         10.22435       -8.27681       -8.63976
C         10.43641       -9.59050       -8.79307
C          9.26606      -10.39037       -8.52791
S          7.86714       -9.40014       -8.22535
C          9.26897      -11.72755       -8.47563
N          8.24005      -12.58943       -8.14722
C          8.28470      -13.94964       -8.06499
S          9.47724      -14.90460       -8.88169
C          8.84508      -16.33841       -8.26372
N          9.49849      -17.56833       -8.56721
O          9.82396      -18.26887       -7.59953
O          9.66254      -17.84758       -9.76262
C          7.75320      -16.16021       -7.45516
C          7.40764      -14.77515       -7.36827
C          6.30939      -14.29453       -6.58420
C          5.02903      -14.38858       -6.97682
C          3.91186      -13.94641       -6.16873
C          2.62136      -14.30158       -6.34489
C          2.14432      -15.31165       -7.35821
C          1.53684      -13.76855       -5.43309
N          0.78798      -12.72749       -6.11035
C         -0.32823      -12.91664       -6.89034
C         -0.93991      -11.99574       -7.64797
C         -2.09429      -12.27027       -8.48226
C         -2.14067      -13.12337       -9.51717
C         -3.33210      -13.45047      -10.26883
C         -3.19320      -14.55582      -11.01845
C         -1.89272      -15.18573      -10.85187
S         -0.78298      -14.05055      -10.10207
C         -1.63017      -16.49644      -10.99798
C         -2.58872      -17.50911      -11.39798
C         -2.31054      -18.71472      -10.88525
C         -1.09457      -18.72482      -10.09967
S         -0.17297      -17.27478      -10.37897
C         -0.77532      -19.70109       -9.23311
C          0.43665      -19.77196       -8.38979
C          1.53360      -20.57796       -8.79394
C          1.47098      -21.31448      -10.12692
C          2.10004      -20.51784      -11.26275
C          2.68633      -20.68325       -7.95480
C          3.81381      -21.63989       -8.30809
C          3.58253      -23.01620       -7.69222
C          2.73695      -19.95312       -6.74157
C          3.93516      -19.95625       -5.81279
C          4.93349      -18.86300       -6.16781
C          1.63722      -19.16561       -6.36695
C          0.48650      -19.08312       -7.15878
C         -0.64151      -18.31108       -6.61958
C         -1.52771      -18.86474       -5.78239
H          6.92496       -3.14620       -5.44474
H          5.56736       -4.39858       -5.56735
H          9.16481       -3.60413       -6.79040
H         10.29969       -5.48708       -8.04038
H         11.00518       -7.54176       -8.77140
H         11.39380      -10.02224       -9.05195
H         10.20975      -12.23805       -8.66483
H          7.39597      -12.10340       -7.84271
H          7.23379      -16.96817       -6.95347
H          6.55171      -13.87440       -5.60995
H          4.80767      -14.80689       -7.95666
H          4.15806      -13.25968       -5.35943
H          2.95331      -15.87837       -7.82546
H          1.57601      -14.82218       -8.15135
H          1.50032      -16.04894       -6.87039
H          1.97394      -13.33692       -4.52512
H          0.87939      -14.57879       -5.09400
H          1.31759      -11.88604       -6.32110
H         -0.70113      -13.94065       -6.86203
H         -0.59485      -10.96565       -7.63897
H         -2.99065      -11.72277       -8.20144
H         -4.25312      -12.89173      -10.18178
H         -3.99511      -14.98826      -11.59927
H         -3.47139      -17.29578      -11.98249
H         -2.93723      -19.58794      -11.00561
H         -1.44733      -20.54097       -9.09415
H          0.43710      -21.56360      -10.39088
H          1.95326      -22.29365      -10.04516
H          1.53847      -19.60274      -11.46965
H          2.10778      -21.11437      -12.18020
H          3.13040      -20.22675      -11.03671
H          4.77986      -21.24150       -7.98148
H          3.92539      -21.73643       -9.39177
H          3.62313      -22.97770       -6.59858
H          4.35064      -23.71769       -8.03146
H          2.60418      -23.42419       -7.96833
H          4.43179      -20.93089       -5.81066
H          3.59739      -19.81213       -4.77849
H          5.30344      -18.97227       -7.19236
H          5.79337      -18.90356       -5.49138
H          4.48189      -17.86902       -6.07956
H          1.67126      -18.61748       -5.42575
H         -0.70966      -17.26757       -6.91203
H         -1.45879      -19.90800       -5.48758
H         -2.34472      -18.27995       -5.37331
