120

C         -3.50535        1.78704       -5.82698
C         -2.18546        2.04529       -5.64878
C         -1.18800        1.41066       -6.39809
N         -0.34635        0.87003       -7.03315
C         -1.70374        3.04365       -4.73609
N         -1.32246        3.82820       -4.00619
C         -4.08343        0.90405       -6.89393
C         -5.41247        1.27246       -7.07824
C         -6.26987        0.70918       -8.01431
C         -5.76527       -0.32487       -8.83106
C         -4.43417       -0.72839       -8.64694
C         -3.57870       -0.13319       -7.67479
S         -4.02665       -1.99964       -9.74801
C         -5.56707       -1.98706      -10.44119
C         -6.41057       -1.07033       -9.87478
Br        -6.07700       -3.11556      -11.84639
C         -5.79812        2.33878       -6.14653
O         -6.83947        2.95224       -6.24419
C         -4.64539        2.50466       -5.18756
C         -4.69646        3.06286       -3.95654
C         -5.86498        3.63217       -3.35303
C         -6.77574        3.00409       -2.53231
C         -7.74979        3.84853       -1.87087
C         -7.58187        5.16155       -2.33594
S         -6.29741        5.26950       -3.51654
C         -8.40862        6.19318       -1.85541
S         -8.21611        7.86096       -2.46803
C         -9.36037        7.75277       -3.86533
C         -9.38698        5.97091       -0.86432
C         -9.55827        4.66753       -0.39588
C         -8.77970        3.60638       -0.90788
S         -9.04350        1.94108       -0.24064
C        -10.34573        1.34533       -1.36775
S        -10.79262        4.61378        0.82091
C        -11.09963        6.28471        0.74609
C        -10.29923        6.87900       -0.20412
C        -12.08380        6.91471        1.59113
C        -12.46622        6.55148        2.86452
C        -13.46591        7.41389        3.44821
C        -13.82258        8.42689        2.55494
S        -12.95221        8.28218        1.07221
C        -14.77150        9.39177        2.91515
S        -15.21363       10.70228        1.78069
C        -16.58405        9.88291        0.92692
C        -15.37381        9.39430        4.18682
C        -15.02237        8.38248        5.08365
C        -14.09381        7.39812        4.71230
S        -13.63600        6.10544        5.85905
C        -14.89783        4.88290        5.41913
S        -15.86464        8.57343        6.58365
C        -16.63759       10.00039        6.08359
C        -16.31959       10.29910        4.77902
C        -17.48208       10.79825        6.93090
C        -18.54628       11.56475        6.51599
C        -19.07152       12.43741        7.53663
C        -18.38356       12.25889        8.73925
S        -17.20876       10.99933        8.59533
C        -18.66563       13.07393        9.84415
S        -17.81417       12.83372       11.39936
C        -18.94382       11.64887       12.19089
C        -19.54713       14.17048        9.73542
C        -20.29579       14.29848        8.56439
C        -20.08842       13.41625        7.49214
S        -20.99646       13.61910        5.96499
C        -21.84767       12.01911        5.90349
S        -21.39433       15.63062        8.69101
C        -20.70820       16.20257       10.15247
C        -19.77467       15.29386       10.60865
C        -21.09920       17.47833       10.66281
C        -21.11468       17.81502       11.96117
C        -20.82975       17.07764       13.19536
C        -21.32065       15.86324       13.54298
C        -20.96621       15.20315       14.75916
N        -20.64113       14.65699       15.72412
C        -22.33300       15.21488       12.77469
N        -23.20595       14.71011       12.20678
C        -20.27574       18.06390       14.16205
C        -20.61158       19.34193       13.69959
C        -21.17199       19.26729       12.33465
O        -21.54354       20.20133       11.65680
C        -20.43021       20.49888       14.44640
C        -19.87535       20.36238       15.74091
C        -19.46376       19.09016       16.17000
C        -19.62642       17.92703       15.38052
S        -18.78694       19.15395       17.75806
C        -19.09443       20.80711       17.88987
C        -19.65473       21.34846       16.76369
Br       -18.70517       21.79835       19.43055
H         -7.29754        1.05089       -8.10837
H         -2.56592       -0.50691       -7.57896
H         -7.43843       -0.91938      -10.18311
H         -3.83495        3.00725       -3.29512
H         -6.70636        1.92901       -2.40372
H         -9.45489        8.73951       -4.32436
H        -10.34970        7.42739       -3.53106
H         -8.98501        7.05045       -4.61397
H        -10.64284        0.29645       -1.21460
H         -9.90606        1.40360       -2.36233
H        -11.25265        1.95099       -1.28470
H        -10.33282        7.94259       -0.41269
H        -12.03020        5.70895        3.38935
H        -16.98627       10.55916        0.16805
H        -17.38398        9.63538        1.63020
H        -16.24143        8.97014        0.43269
H        -14.75164        3.98280        6.02228
H        -14.81675        4.60992        4.36347
H        -15.89987        5.27331        5.61574
H        -16.70317       11.17634        4.26992
H        -18.89948       11.56236        5.49077
H        -18.50215       11.31620       13.13557
H        -19.10728       10.76650       11.56625
H        -19.90739       12.12041       12.40447
H        -22.35979       11.92732        4.94285
H        -22.57907       11.94811        6.71113
H        -21.15183       11.18170        5.98601
H        -19.18680       15.44864       11.50487
H        -21.29905       18.25547        9.92144
H        -20.73952       21.46556       14.05823
H        -19.28351       16.97380       15.76722
H        -19.91796       22.39465       16.66441
