98

C         -0.89989        1.65649        4.70142
C          0.35246        1.64002        4.18207
C          1.51105        1.33549        4.95539
N          2.45720        1.08720        5.57746
C          0.61163        1.87925        2.80145
N          0.81649        2.08440        1.67778
C         -1.28177        1.29623        6.10436
C         -2.66184        1.08511        6.14284
C         -3.37148        0.75186        7.29094
C         -2.64763        0.61515        8.49447
C         -1.25995        0.82162        8.47143
C         -0.55856        1.17371        7.28755
S         -0.57482        0.59204       10.04272
C         -2.08059        0.24086       10.71979
C         -3.10786        0.29321        9.81681
Br        -2.32137       -0.17872       12.52950
C         -3.26458        1.31149        4.82398
O         -4.40906        1.04140        4.52673
C         -2.17190        1.88880        3.96859
C         -2.41263        2.62081        2.86563
C         -3.72401        2.90655        2.38842
C         -4.48976        2.21947        1.44585
C         -5.74097        2.84483        1.25128
C         -5.87379        3.97075        2.03410
S         -4.55060        4.32686        2.97238
C         -7.14609        4.53891        1.80762
C         -7.81307        3.77664        0.87736
C         -6.96517        2.65424        0.47099
C         -7.24543        1.67371       -0.40985
C         -6.30192        0.65604       -0.71937
N         -5.52667       -0.16636       -0.98354
C         -8.49123        1.61050       -1.09252
N         -9.50066        1.56500       -1.66350
C         -9.08598        4.31148        0.58833
C         -9.36143        5.45216        1.35007
S         -7.99557        5.84916        2.37056
C        -10.50494        6.27706        1.37055
C        -10.56816        7.75152        1.53149
N        -11.74932        8.29704        1.45445
C        -12.55950        7.22654        1.25171
C        -11.80123        5.99463        1.22424
C        -12.76048        4.85448        1.03888
S        -12.42683        3.22944        1.07280
C        -14.08378        5.56030        0.88969
C        -13.84804        6.98392        1.04776
N        -14.99920        7.69368        0.93167
C        -15.88241        6.76597        0.69827
C        -15.38197        5.36709        0.65033
C        -16.12968        4.20092        0.38596
C        -15.95051        2.88437        0.82213
C        -16.90912        2.00641        0.27777
C        -17.78397        2.67366       -0.54514
S        -17.54403        4.30925       -0.64362
C        -18.68664        1.74554       -1.09760
C        -18.41995        0.49998       -0.57673
C        -17.25129        0.58281        0.29979
C        -16.60406       -0.42414        0.91963
C        -15.44329       -0.19323        1.70769
N        -14.50914       -0.00261        2.36927
C        -17.05409       -1.77153        0.83493
N        -17.43930       -2.86643        0.79954
C        -19.31616       -0.47055       -1.07272
C        -20.07716        0.05323       -2.11517
S        -19.87214        1.77761       -2.25749
C        -21.02723       -0.57702       -2.94938
C        -20.79683       -1.16838       -4.13143
C        -19.66443       -1.47090       -5.03837
C        -18.32714       -1.49274       -4.81096
C        -17.36166       -1.59762       -5.85436
N        -16.55409       -1.65734       -6.68755
C        -17.69243       -1.45967       -3.54020
N        -17.04232       -1.51998       -2.58380
C        -20.28065       -1.89783       -6.35073
C        -21.66932       -1.86765       -6.23664
C        -22.06699       -1.44962       -4.89327
O        -23.21448       -1.34089       -4.50889
C        -22.55578       -2.25956       -7.23861
C        -22.01141       -2.78415       -8.43041
C        -20.61813       -2.85743       -8.54870
C        -19.74127       -2.41010       -7.52895
S        -20.15142       -3.57548      -10.04846
C        -21.75790       -3.78840      -10.51556
C        -22.65874       -3.31746       -9.59748
Br       -22.25165       -4.60278      -12.12802
H         -4.44931        0.61734        7.25665
H          0.50983        1.34444        7.35492
H         -4.14495        0.10602       10.06897
H         -1.61744        3.11347        2.31745
H         -4.13906        1.31415        0.96513
H         -9.78412        3.90912       -0.13477
H         -9.64438        8.32476        1.69826
H        -16.95384        6.97239        0.55473
H        -15.15597        2.59193        1.49305
H        -19.34060       -1.52042       -0.80358
H        -22.05748       -0.46246       -2.60463
H        -23.62980       -2.20453       -7.08172
H        -18.68137       -2.54039       -7.70045
H        -23.73301       -3.36868       -9.72644
