96

C          1.15918       -1.18811        0.25656
O          0.51237       -1.73341        1.12487
C          1.85190        0.10128        0.39019
C          2.56911        0.39582       -0.77914
C          3.13112        1.65815       -0.90916
C          2.99659        2.58362        0.14462
C          2.30711        2.24103        1.32545
C          1.72351        0.98025        1.45382
Br         2.07346        3.44649        2.77402
Br         3.75187        4.30670       -0.13515
C          2.47389       -0.77545       -1.69633
C          3.33108       -1.08644       -2.69806
C          4.43100       -0.25425       -3.05057
N          5.32255        0.43302       -3.32996
C          3.23737       -2.30787       -3.42708
N          3.13828       -3.30239       -4.01541
C          1.37737       -1.61519       -1.17069
C          0.54632       -2.43241       -1.83819
C         -0.59495       -3.01296       -1.22468
O         -0.55662       -4.24149       -0.62419
C         -1.78599       -4.53610       -0.08718
C         -2.63362       -3.47344       -0.36789
C         -1.89097       -2.53137       -1.11354
C         -2.35299       -1.29858       -1.65854
N         -2.70133       -0.29569       -2.12451
C         -4.00474       -3.37685        0.01882
N         -5.11812       -3.31204        0.33921
C         -2.05314       -5.73400        0.62012
C         -1.34003       -6.84690        0.40083
C         -1.58665       -8.09042        1.07345
N         -1.54240       -8.26714        2.45935
C         -1.34031       -7.24565        3.46766
C         -2.66543       -6.70614        3.99583
C         -1.88376       -9.58460        2.82297
O         -1.97097      -10.09053        3.92836
C         -2.19367      -10.20880        1.52491
C         -1.95085       -9.23999        0.49402
C         -2.29632       -9.86012       -0.79453
O         -2.24201       -9.34262       -1.89107
N         -2.76458      -11.14069       -0.41238
C         -3.42502      -12.01695       -1.36224
C         -2.47199      -12.92736       -2.11812
C         -2.70114      -11.31437        0.97321
C         -3.15103      -12.49469        1.66261
C         -3.76244      -12.44903        2.85817
C         -4.13061      -13.62783        3.56001
O         -3.89156      -14.89258        3.08338
C         -4.33829      -15.83412        3.97745
C         -4.88971      -15.14962        5.05109
C         -4.74386      -13.76558        4.79731
C         -5.14471      -12.69192        5.64919
N         -5.48710      -11.82760        6.34195
C         -5.46054      -15.75129        6.21064
N         -5.91654      -16.25771        7.14949
C         -4.21139      -17.23074        3.74272
C         -3.20345      -17.70339        2.99220
C         -3.03813      -19.10884        2.70563
C         -2.82993      -20.09305        3.59152
C         -3.06846      -21.50124        3.13929
O         -3.12636      -21.92423        2.00453
C         -3.31714      -22.26872        4.37099
C         -3.17275      -21.44811        5.50338
C         -2.65571      -20.12306        5.05149
C         -1.91234      -19.27273        5.80342
C         -1.11468      -18.23930        5.22615
N         -0.42083      -17.42194        4.78019
C         -1.76130      -19.41729        7.21217
N         -1.65024      -19.53351        8.36065
C         -3.46995      -21.98269        6.74937
C         -3.83442      -23.33923        6.84783
C         -3.92597      -24.14861        5.69777
C         -3.68337      -23.60333        4.43612
Br        -4.37021      -25.99348        5.76586
Br        -4.16968      -24.00423        8.59808
H          3.63867        1.96860       -1.81782
H          1.15030        0.69842        2.33305
H          0.65619       -2.63461       -2.89794
H         -2.87504       -5.72446        1.32249
H         -0.56991       -6.86771       -0.36949
H         -0.71101       -6.44237        3.07209
H         -0.79707       -7.69803        4.30574
H         -3.27959       -6.26780        3.20805
H         -2.49353       -5.93355        4.74986
H         -3.26651       -7.50389        4.44318
H         -3.94855      -11.38467       -2.08949
H         -4.19038      -12.61040       -0.85156
H         -1.68665      -12.35663       -2.62341
H         -3.02331      -13.49085       -2.87949
H         -1.99289      -13.64678       -1.44726
H         -2.95289      -13.44690        1.17526
H         -3.96534      -11.49639        3.34125
H         -4.94888      -17.90053        4.17708
H         -2.47487      -17.03456        2.53179
H         -3.16875      -19.35891        1.65042
H         -3.42575      -21.38762        7.65643
H         -3.76999      -24.19290        3.52747
