88

C          2.06421        1.24157       -0.31864
C          2.62450        2.47213       -0.39777
C          3.31960        2.92278       -1.55516
N          3.88364        3.27988       -2.50452
C          2.67663        3.33895        0.73568
N          2.76198        4.00258        1.68434
C          2.26535        0.12118       -1.26817
C          2.17413       -1.07918       -0.54217
C          2.35389       -2.32580       -1.11283
C          2.58698       -2.38431       -2.49135
C          2.61712       -1.18395       -3.26202
C          2.46383        0.06910       -2.63746
C          2.78803       -1.27209       -4.65051
C          2.94423       -2.51161       -5.27233
C          2.94038       -3.67959       -4.51476
C          2.76156       -3.61730       -3.13260
C          1.72842       -0.80922        0.84001
O          1.55419       -1.61701        1.72694
C          1.41766        0.65393        0.85845
C          0.43071        1.06482        1.66751
C         -0.29608        2.26565        1.45586
S         -1.19148        2.96631        2.74889
C         -1.83840        4.10075        1.61874
N         -1.31679        3.97914        0.41336
N         -0.44199        2.91943        0.31704
C         -2.84187        5.00614        2.05373
C         -3.07700        6.14797        1.38914
C         -4.10827        7.12130        1.76918
C         -4.66282        7.94357        0.78102
C         -5.62563        8.92863        1.09723
N         -6.16078        9.71718       -0.03663
O         -5.72913        9.45042       -1.16843
O         -7.00573       10.59337        0.17546
C         -6.04312        9.10203        2.43368
C         -5.44961        8.27903        3.41407
C         -4.50955        7.30240        3.09043
C         -7.00879       10.10538        2.90972
C         -7.85015        9.89100        3.93325
C         -8.75129       10.90334        4.33951
S         -9.77683       10.62387        5.69532
C        -10.37074       12.22608        5.49383
N         -9.83937       12.85659        4.46666
N         -8.91759       12.09252        3.79719
C        -11.31562       12.73035        6.41777
C        -11.32798       14.03984        6.69973
C        -12.25909       14.61376        7.64126
C        -12.07456       15.73809        8.34916
C        -12.94965       16.34849        9.37338
C        -14.30301       16.30180        9.41928
C        -15.07067       16.99895       10.38732
N        -15.69742       17.56248       11.19138
C        -15.08176       15.58883        8.45643
N        -15.71513       15.00025        7.68448
C        -12.06448       17.18332       10.23853
C        -10.80976       17.28249        9.62281
C        -10.76072       16.46959        8.40375
O         -9.80867       16.40391        7.65552
C         -9.74616       17.99946       10.14625
C         -9.93053       18.65211       11.36651
C        -11.18261       18.55341       12.03620
C        -12.23970       17.80935       11.46592
C        -11.34062       19.20438       13.26865
C        -10.29413       19.93912       13.82967
C         -9.07187       20.03309       13.16955
C         -8.89021       19.39222       11.94486
H          2.27220       -3.22181       -0.50471
H          2.47098        0.97143       -3.24242
H          2.79522       -0.37391       -5.26558
H          3.07005       -2.56401       -6.35096
H          3.06985       -4.64302       -5.00132
H          2.75313       -4.54395       -2.56219
H          0.05145        0.38805        2.43155
H         -3.42361        4.73111        2.92760
H         -2.48693        6.40209        0.50915
H         -4.34145        7.80544       -0.25150
H         -5.69832        8.39151        4.46889
H         -4.08993        6.70944        3.89972
H         -7.02906       11.06689        2.39868
H         -7.85963        8.95342        4.47818
H        -11.98188       12.03434        6.91624
H        -10.61054       14.70303        6.21365
H        -13.16259       14.02276        7.76753
H         -8.79739       18.02770        9.61663
H        -13.17024       17.73313       12.01947
H        -12.28531       19.14809       13.80683
H        -10.43421       20.44012       14.78471
H         -8.25848       20.60580       13.60770
H         -7.92674       19.47576       11.44542
