76

C          0.54279        1.15290       -4.07538
N          1.76039        0.63770       -3.83426
N          1.84996       -0.69274       -3.60374
C          0.71612       -1.42483       -3.60943
N         -0.50223       -0.89434       -3.84589
N         -0.59130        0.43255       -4.09346
C          0.82319       -2.86162       -3.35442
C         -0.17830       -3.63154       -2.87221
C          0.31161       -5.00964       -2.73576
C          1.71968       -4.96777       -3.16437
C          1.99578       -3.70633       -3.53675
C          2.67131       -6.01297       -3.21659
N          3.47723       -6.84758       -3.24357
C         -0.42199       -6.06664       -2.32406
C          0.06472       -7.43663       -2.16836
C         -0.96134       -8.23824       -1.80541
C         -2.14925       -7.40217       -1.69235
C         -1.84617       -6.12518       -1.97595
C         -2.80097       -5.08718       -1.95252
N         -3.60255       -4.24576       -1.91704
C         -0.82714       -9.65439       -1.58808
N         -1.43087      -10.38232       -0.55567
C         -2.20372       -9.87889        0.56015
C         -3.62930      -10.41427        0.56868
C         -1.07613      -11.74797       -0.61199
O         -1.38805      -12.65618        0.13088
C         -0.19029      -11.81399       -1.78457
C         -0.10398      -10.49340       -2.33790
C          0.75961      -10.55879       -3.52840
O          1.04926       -9.64776       -4.27611
N          1.12662      -11.92039       -3.57359
C          2.01620      -12.41760       -4.60506
C          3.48050      -12.14749       -4.29592
C          0.56000      -12.64128       -2.51560
C          0.72546      -14.05892       -2.33927
C          0.68025      -14.70456       -1.16072
C          0.81589      -16.15966       -0.97334
C          0.66587      -16.69274        0.31350
C          0.81740      -18.07397        0.51954
N          0.66696      -18.56871        1.87624
O         -0.41340      -18.34464        2.43826
O          1.64002      -19.13992        2.38654
C          1.10077      -18.95550       -0.53275
C          1.23931      -18.41439       -1.81367
C          1.10175      -17.03837       -2.02759
C          1.23891      -20.40605       -0.38453
C          2.43144      -20.98209       -0.16339
C          2.61681      -22.42205        0.00029
N          3.83110      -22.92922       -0.29507
N          4.02146      -24.26297       -0.16182
C          2.98997      -25.00408        0.27810
N          1.77820      -24.50877        0.58048
N          1.58388      -23.17830        0.42799
H          0.46923        2.21352       -4.26610
H         -1.15424       -3.25483       -2.61027
H          2.93848       -3.34249       -3.92317
H          1.07566       -7.77638       -2.32404
H         -3.12668       -7.78178       -1.43291
H         -2.21261       -8.78731        0.57120
H         -1.70028      -10.20143        1.47918
H         -4.14840      -10.17636       -0.36481
H         -4.19208       -9.98180        1.40149
H         -3.64740      -11.50250        0.69016
H          1.75840      -11.91059       -5.54239
H          1.85610      -13.48603       -4.77106
H          3.67158      -11.07480       -4.18706
H          4.11211      -12.52137       -5.10865
H          3.78821      -12.64036       -3.36849
H          0.86956      -14.61466       -3.25681
H          0.51957      -14.14216       -0.24211
H          0.43068      -16.04364        1.15702
H          1.45254      -19.05473       -2.66800
H          1.22328      -16.67833       -3.04515
H          0.32531      -20.98884       -0.48210
H          3.34304      -20.39602       -0.09155
H          3.14427      -26.06711        0.39394
