106

C         12.56135        3.29412        9.44469
C         12.58367        4.05867       10.60477
F         13.28315        3.62663       11.66195
C         11.88889        5.25747       10.68808
C         11.15568        5.70967        9.58968
C         11.10742        4.95714        8.40573
C         11.82183        3.72296        8.33536
C         11.76802        2.93437        7.17187
C         10.98880        3.35133        6.10478
C         10.33995        4.59586        6.17169
C         10.37263        5.40203        7.29737
C          9.69318        4.90813        4.87790
O          9.03052        5.88840        4.61375
C         10.09777        3.79203        3.96010
C         10.60682        2.71684        4.82102
C         10.44972        1.38642        4.61896
C          9.64183        0.89322        3.54865
N          8.94225        0.50773        2.70856
C         11.00554        0.40342        5.48311
N         11.51169       -0.38505        6.16908
C         10.17498        4.03287        2.63889
C         10.87099        3.22596        1.67845
C         10.54369        3.05874        0.33117
C         11.43761        2.15150       -0.30115
C         12.36383        1.67660        0.58644
S         12.39269        2.44387        2.07640
C         13.17298        0.66675        0.11833
C         13.07889        0.40633       -1.21172
S         11.79875        1.38065       -1.80528
C         14.08661       -0.53143       -1.50388
C         14.63238       -0.93763       -0.27888
N         14.08912       -0.13890        0.73565
C         14.29770       -0.23379        2.16116
C         15.58079       -1.97406        0.03065
C         15.73008       -3.11231       -0.67610
C         16.67710       -4.16785       -0.36662
C         16.68925       -5.17681       -1.25659
C         15.76487       -4.99424       -2.35943
S         14.80989       -3.54865       -2.08739
C         15.54985       -5.79313       -3.42097
C         16.09859       -7.10712       -3.69018
C         15.35204       -7.81370       -4.56068
C         14.17222       -7.09118       -5.01022
S         14.40557       -5.39480       -4.69918
C         13.05793       -7.66955       -5.49472
C         11.78544       -7.03031       -5.71132
C         10.82829       -7.35606       -6.67818
C          9.64717       -6.57374       -6.52119
C          9.79409       -5.67062       -5.50850
S         11.17258       -5.83796       -4.58036
C          8.75093       -4.79711       -5.32570
C          7.63380       -5.02907       -6.06762
S          8.04502       -6.31593       -7.13047
C          6.66219       -4.10258       -5.62241
C          7.29020       -3.32091       -4.64681
N          8.62187       -3.70169       -4.52363
C          9.70524       -2.97032       -3.90490
C          6.77638       -2.18536       -3.96279
C          6.04080       -2.27033       -2.84492
C          5.07924       -1.14519       -2.55859
O          5.13155        0.00344       -2.94499
C          3.97636       -1.76118       -1.78854
C          2.79246       -1.16217       -1.38394
C          1.84007       -1.95512       -0.72003
C          2.08850       -3.34693       -0.53377
C          1.13727       -4.14387        0.11219
C         -0.03864       -3.57696        0.58222
C         -0.29502       -2.22241        0.41941
C          0.63857       -1.41265       -0.23356
F         -0.93582       -4.35077        1.20673
C          3.28916       -3.91930       -0.97526
C          4.25805       -3.11358       -1.55112
C          5.66196       -3.37698       -1.96176
C          6.46929       -4.24541       -1.30984
C          7.89040       -4.18752       -1.33589
N          9.03854       -4.17751       -1.19957
C          5.97824       -5.18335       -0.34736
N          5.57604       -5.93979        0.43180
H         13.11570        2.35933        9.42950
H         11.92122        5.83230       11.60828
H         10.61692        6.65193        9.66988
H         12.33336        2.00776        7.13547
H          9.83681        6.34756        7.30621
H          9.72186        4.94609        2.25070
H          9.69557        3.52199       -0.15868
H         14.33287       -0.90194       -2.48847
H         14.91121       -1.09865        2.41449
H         13.33046       -0.35544        2.65678
H         14.80583        0.67291        2.49708
H         16.22403       -1.83319        0.89485
H         17.31224       -4.13606        0.50824
H         17.33674       -6.03804       -1.17438
H         16.97397       -7.49542       -3.19110
H         15.55351       -8.83737       -4.84181
H         13.07238       -8.74210       -5.67202
H         10.96684       -8.11332       -7.43870
H          5.64867       -3.99228       -5.98489
H          9.31847       -2.10908       -3.35637
H         10.38726       -2.62873       -4.68624
H         10.23599       -3.61871       -3.21159
H          6.80133       -1.24406       -4.51416
H          2.62279       -0.10647       -1.57673
H          1.30281       -5.20640        0.27139
H         -1.22076       -1.80578        0.80333
H          0.42173       -0.35281       -0.35133
H          3.44446       -4.98584       -0.84123
