103

C          0.07965        0.73014        0.73554
C         -1.26910        0.71955        0.82170
C         -1.94803        0.19025        1.95777
N         -2.49282       -0.22293        2.89098
C         -2.08726        1.18755       -0.24978
N         -2.75309        1.56716       -1.12141
C          1.04505        0.09767        1.65414
C          2.15577       -0.31108        0.89601
C          3.27160       -0.89994        1.46174
C          3.32912       -0.97835        2.86116
C          2.25751       -0.46271        3.65139
C          1.09649        0.04102        3.03584
C          2.39930       -0.41926        5.04595
C          3.55609       -0.89986        5.66136
C          4.57602       -1.45471        4.89371
C          4.46347       -1.49534        3.50294
C          2.05370        0.23960       -0.47924
O          2.82113        0.07427       -1.40145
C          0.88023        1.17357       -0.40269
C          0.98479        2.37791       -0.98993
C          0.27825        3.53381       -0.52722
C         -0.07542        3.92505        0.77517
C         -0.70003        5.19061        0.79867
C         -0.72110        5.74258       -0.45940
S         -0.19034        4.74964       -1.67955
C         -1.24819        7.04475       -0.37401
C         -1.62218        7.30858        0.92496
C         -1.31034        6.12981        1.74948
C         -1.58103        5.92605        3.05589
C         -2.23110        6.91764        3.83924
N         -2.76459        7.71966        4.48237
C         -1.27628        4.69252        3.70371
N         -1.02912        3.66537        4.18590
C         -2.20007        8.60149        1.03244
C         -2.20181        9.27053       -0.20195
S         -1.43893        8.30095       -1.42959
C         -2.68651       10.60181       -0.50621
C         -3.20979       11.06327       -1.69326
C         -3.49448       12.43561       -1.63951
C         -3.95218       12.82937       -2.92701
C         -4.03843       11.80775       -3.86773
S         -3.58315       10.22909       -3.27600
C         -4.46838       11.93291       -5.29304
F         -4.26029       14.05744       -3.24762
C         -3.26981       13.07111       -0.45789
S         -2.64637       11.88885        0.64376
C         -3.48530       14.44252       -0.04912
C         -2.77490       15.17600        0.90760
C         -3.29519       16.48275        1.04369
C         -4.36728       16.68797        0.20536
S         -4.79209       15.37987       -0.71324
C         -4.87406       17.98597        0.40824
C         -4.12632       18.59496        1.38715
C         -3.05990       17.69625        1.82455
C         -2.08324       17.93946        2.72121
C         -1.96876       19.19322        3.38628
N         -1.87452       20.20131        3.94502
C         -1.10515       16.96026        3.04360
N         -0.31093       16.15639        3.31152
C         -4.64283       19.85880        1.70891
C         -5.77963       20.17203        0.95668
S         -6.13287       18.89439       -0.18244
C         -6.67464       21.28591        1.03602
C         -6.30609       22.53006        1.38183
C         -7.14790       23.69658        1.73276
C         -8.29170       24.08685        1.12082
C         -8.93739       25.31870        1.42593
N         -9.45375       26.32717        1.67618
C         -8.88267       23.33049        0.06163
N         -9.35999       22.70676       -0.78579
C         -6.36563       24.47364        2.74212
C         -5.04950       23.99354        2.72786
C         -4.90601       22.93517        1.73125
O         -3.85538       22.55084        1.26437
C         -4.04979       24.42851        3.57806
C         -4.36932       25.42693        4.49587
C         -5.68610       25.97107        4.52284
C         -6.68419       25.47303        3.65063
C         -5.96292       27.00218        5.43337
C         -4.97759       27.47297        6.30599
C         -3.70312       26.91346        6.29283
C         -3.39979       25.89518        5.39187
H          4.11058       -1.19597        0.83827
H          0.29758        0.45691        3.64539
H          1.61882        0.01508        5.66882
H          3.66080       -0.83872        6.74205
H          5.47015       -1.84093        5.37705
H          5.28356       -1.91539        2.92394
H          1.75517        2.53282       -1.74897
H          0.14220        3.31825        1.64431
H         -2.61136        9.04289        1.93364
H         -4.80595       12.95077       -5.51568
H         -5.29715       11.25202       -5.51197
H         -3.63630       11.70242       -5.96652
H         -1.93679       14.76625        1.45829
H         -4.24188       20.51305        2.47078
H         -7.72566       21.04596        0.88573
H         -3.05949       23.98318        3.52810
H         -7.68910       25.87750        3.72400
H         -6.95035       27.45828        5.46873
H         -5.20653       28.27811        6.99985
H         -2.94109       27.27225        6.98026
H         -2.39752       25.47039        5.39482
