85

C         -2.82809        3.11459        7.46356
C         -3.11891        3.69199        8.64775
C         -2.41021        4.82946        9.12589
N         -1.81406        5.75218        9.51050
C         -4.20727        3.24706        9.45390
N         -5.08956        2.85716       10.09925
C         -1.81555        3.54413        6.45462
C         -2.21807        3.05113        5.20849
C         -1.44663        3.10628        4.05638
C         -0.15631        3.66818        4.17318
C          0.24125        4.20460        5.41045
C         -0.58255        4.16953        6.56654
S          1.84363        4.84807        5.31675
C          2.02218        4.34770        3.71502
C          0.90380        3.74582        3.20501
Br         3.60228        4.58343        2.73693
C         -3.47973        2.31336        5.35031
O         -4.28137        2.08978        4.46921
C         -3.57240        2.01696        6.81968
C         -3.91451        0.84008        7.38150
C         -4.23946       -0.34075        6.66125
S         -3.56510       -0.78741        5.14793
C         -4.95184       -1.40508        7.13251
S         -5.73212       -1.84187        8.70198
C         -6.21687       -3.32329        7.81145
N         -5.88923       -3.50248        6.52523
C         -5.15479       -2.40575        6.17106
C         -4.60872       -2.15031        4.94599
C         -4.66135       -2.84066        3.70603
C         -4.65011       -2.15329        2.55259
C         -4.56755       -2.69351        1.21805
C         -3.95779       -2.04326        0.19697
C         -3.18719       -0.81212        0.18513
C         -2.62540       -0.41179       -0.97325
C         -2.80769       -1.15455       -2.22022
C         -3.50799       -2.30597       -2.27290
C         -4.09391       -2.81460       -1.04842
C         -4.75530       -3.96520       -0.80705
C         -5.11464       -3.92842        0.62451
C         -5.87251       -4.83551        1.25843
N         -5.03666       -5.02237       -1.63894
C         -5.82377       -5.02083       -2.75459
S         -6.82321       -3.67969       -3.18821
C         -7.62838       -4.58677       -4.35497
N         -8.74850       -4.00916       -5.02022
O         -8.72556       -4.02633       -6.25619
O         -9.66700       -3.58065       -4.30924
C         -7.08902       -5.83179       -4.56012
C         -6.00833       -6.07458       -3.64942
C         -5.27132       -7.30941       -3.63630
C         -3.97051       -7.44177       -3.32352
C         -3.27796       -8.70740       -3.24454
C         -3.61663       -9.74689       -2.44285
C         -4.72081       -9.92321       -1.52318
C         -4.80225      -11.07656       -0.82908
C         -3.80450      -12.14081       -0.96524
C         -2.74496      -12.03319       -1.79298
C         -2.60930      -10.81818       -2.56332
C         -1.65237      -10.44547       -3.42752
C         -2.01683       -9.11460       -3.89199
C         -1.30965       -8.41546       -4.78672
H         -1.79142        2.65052        3.13159
H         -0.19958        4.55464        7.50545
H          0.83582        3.35218        2.19748
H         -3.83424        0.71724        8.45899
H         -6.78799       -4.06380        8.35696
H         -4.69069       -3.92325        3.73715
H         -4.65948       -1.06290        2.58041
H         -3.03549       -0.25351        1.10094
H         -2.01408        0.48460       -1.01009
H         -2.36030       -0.73901       -3.11772
H         -3.65531       -2.84137       -3.20238
H         -6.16088       -4.71797        2.29679
H         -6.26992       -5.70990        0.75821
H         -4.91496       -5.91751       -1.17090
H         -7.45708       -6.53669       -5.29714
H         -5.82031       -8.20350       -3.93227
H         -3.35848       -6.57171       -3.09411
H         -5.46305       -9.14421       -1.40473
H         -5.62043      -11.24447       -0.13483
H         -3.94361      -13.03063       -0.35864
H         -2.00342      -12.81668       -1.88144
H         -0.77986      -11.00356       -3.72334
H         -0.39587       -8.81377       -5.21716
H         -1.62122       -7.43133       -5.11945
