90

C         10.79123       -2.04196        2.88404
C         10.93809       -3.00023        1.96866
C         11.89970       -3.00700        0.89835
C         11.72008       -4.01196        0.03039
C         10.56020       -4.83436        0.33364
S          9.91231       -4.40033        1.91843
C          9.95995       -5.69374       -0.50944
C         10.38457       -6.02367       -1.85769
C          9.42489       -6.60206       -2.59455
C          8.18762       -6.79330       -1.86979
S          8.40179       -6.43568       -0.17548
C          7.02653       -7.15125       -2.43768
C          5.80700       -7.23240       -1.70437
S          5.40395       -8.72578       -0.98519
C          3.96546       -8.11269       -0.30409
C          3.78334       -6.76599       -0.59397
C          4.83801       -6.25766       -1.47100
C          4.89371       -4.83349       -1.99688
C          5.55764       -4.68414       -3.36146
C          2.63348       -5.94402       -0.05600
C          2.96611       -5.28267        1.27540
C          3.17010       -8.99941        0.47192
C          2.18939       -9.70417       -0.11807
C          1.35270      -10.63273        0.60154
C          0.37905      -11.34776        0.01218
C         -0.49526      -12.25290        0.75397
N         -1.02081      -13.27659        0.05878
C         -1.80931      -14.11271        0.75331
C         -2.10949      -13.94098        2.07917
C         -1.55864      -12.83301        2.69027
N         -0.72915      -11.99079        2.05292
C         -1.82495      -12.52649        4.09695
C         -2.97883      -12.83066        4.71289
C         -3.23442      -12.56083        6.08943
C         -4.56338      -12.31764        6.79930
N         -4.47723      -12.18980        8.10682
C         -3.10550      -12.26305        8.34316
C         -2.03208      -12.23407        9.13991
S         -0.89279      -12.54735        7.83457
C         -2.42047      -12.48572        7.12727
C         -5.80929      -12.32747        5.98628
C         -6.94294      -11.64371        6.20948
C         -8.23057      -11.65414        5.44540
C         -8.62837      -12.51638        4.47493
C         -9.91503      -12.47458        3.85833
N        -10.94904      -12.45439        3.34792
C         -7.81612      -13.58790        4.00005
N         -7.14662      -14.45577        3.61401
C         -9.09771      -10.58660        6.05017
C         -8.45835      -10.07929        7.17775
C         -7.10090      -10.61698        7.29903
O         -6.28567      -10.16758        8.07332
C         -9.01217       -9.13237        8.03759
C        -10.29577       -8.63385        7.73116
C        -10.92047       -9.07954        6.55824
C        -10.33295      -10.04617        5.70030
S        -12.44818       -8.30295        6.33458
C        -12.29684       -7.44756        7.78156
C        -11.12104       -7.69383        8.43836
Br       -13.60977       -6.27385        8.41971
H         11.41309       -1.15472        2.88381
H         10.02185       -2.11027        3.64792
H         12.66585       -2.25080        0.79832
H         12.32802       -4.14783       -0.85253
H         11.36844       -5.79652       -2.24242
H          9.54279       -6.88052       -3.63250
H          6.96538       -7.30846       -3.51075
H          5.41513       -4.20440       -1.26551
H          3.87857       -4.43249       -2.09137
H          6.64343       -4.78903       -3.28511
H          5.37895       -3.69046       -3.77745
H          5.18645       -5.43113       -4.07267
H          1.74293       -6.57200        0.07105
H          2.34635       -5.17564       -0.78014
H          3.08168       -6.02936        2.06869
H          2.16216       -4.60085        1.57208
H          3.89620       -4.70748        1.21868
H          3.39806       -9.09691        1.52826
H          1.98749       -9.58154       -1.17878
H          1.53068      -10.73662        1.67000
H          0.18808      -11.29227       -1.05343
H         -2.21543      -14.95186        0.19688
H         -2.74756      -14.63603        2.60379
H         -1.02381      -12.01292        4.62276
H         -3.77609      -13.32990        4.16806
H         -1.91420      -12.07975       10.20732
H         -5.71780      -12.99760        5.14463
H         -8.46458       -8.79344        8.91344
H        -10.87392      -10.31991        4.80310
H        -10.84672       -7.23368        9.38018
