96

C         -2.07765        3.28411       -1.77634
C         -1.77576        4.59865       -1.63292
C         -0.54303        5.16583       -2.06548
N          0.45754        5.63879       -2.41300
C         -2.65299        5.53909       -1.02336
N         -3.36251        6.32011       -0.53151
C         -1.20255        2.22595       -2.39283
C         -1.83738        0.98847       -2.25990
C         -1.30301       -0.22800       -2.66956
C         -0.02954       -0.21140       -3.27066
C          0.61108        1.02364       -3.44843
C          0.03908        2.25375       -3.02217
S          2.13930        0.81639       -4.23127
C          1.95558       -0.86065       -4.29152
C          0.77471       -1.29765       -3.75553
Br         3.24126       -2.01030       -5.02196
C         -3.14184        1.13498       -1.62101
O         -3.92005        0.23166       -1.38178
C         -3.30290        2.59146       -1.31793
C         -4.42936        2.98745       -0.70538
N         -5.47547        2.17993       -0.29887
C         -6.57683        2.49321        0.43252
S         -7.26859        1.25413        1.41157
C         -8.43903        2.30702        2.02125
N         -9.37998        1.82823        2.98525
O         -9.64421        2.59367        3.92086
O         -9.87597        0.70928        2.79868
C         -8.36112        3.57779        1.50363
C         -7.31798        3.66664        0.52680
C         -7.12761        4.81618       -0.31043
C         -7.25675        4.74798       -1.64547
C         -7.09748        5.85916       -2.55544
C         -8.08947        6.35628       -3.30643
C         -7.96316        7.43164       -4.26068
C         -9.14499        7.94034       -4.64156
C        -10.27574        7.31166       -3.98109
S         -9.74750        5.83380       -3.18250
C        -11.53693        7.77188       -3.91802
C        -12.04893        8.99502       -4.50780
C        -13.37793        9.13400       -4.38769
C        -13.99998        8.03110       -3.69258
S        -12.81848        6.93555       -3.04388
C        -15.31441        7.79840       -3.58371
N        -15.92550        6.70323       -2.98816
C        -17.25243        6.42741       -2.93559
C        -18.22897        7.40322       -2.99764
S        -19.81091        6.77241       -2.94079
C        -19.21536        5.17856       -2.81714
C        -17.83351        5.10533       -2.83073
N        -17.13773        3.92372       -2.78332
C        -17.62200        2.66746       -3.11455
C        -16.97755        1.48994       -3.13597
C        -17.61050        0.26629       -3.61340
C        -17.05941       -0.94722       -3.77872
C        -15.71288       -1.48475       -3.57028
C        -14.54378       -0.92716       -3.97048
C        -13.28834       -1.58197       -3.83940
N        -12.26240       -2.11633       -3.72707
C        -14.50083        0.28635       -4.71315
N        -14.44847        1.25214       -5.35382
C        -15.86956       -2.94049       -3.29549
C        -17.13395       -3.32916       -3.74818
C        -17.93946       -2.13359       -4.09005
O        -19.07712       -2.13196       -4.51184
C        -17.52725       -4.65986       -3.84979
C        -16.59448       -5.65628       -3.46384
C        -15.36147       -5.25324       -2.92655
C        -14.99525       -3.89464       -2.79384
S        -14.38161       -6.61155       -2.50522
C        -15.54505       -7.69971       -3.05764
C        -16.67920       -7.09197       -3.52889
Br       -15.30031       -9.55662       -3.02101
H         -1.85167       -1.15428       -2.51943
H          0.59951        3.16296       -3.20090
H          0.48197       -2.33980       -3.70295
H         -4.59801        4.02092       -0.43440
H         -5.27402        1.17711       -0.41341
H         -9.05266        4.37457        1.75392
H         -6.90737        5.76573        0.17247
H         -7.54201        3.80396       -2.11110
H         -6.10079        6.28677       -2.61646
H         -7.00746        7.78425       -4.62155
H         -9.24749        8.75122       -5.34838
H        -11.41979        9.71977       -5.00583
H        -13.93676        9.97004       -4.78529
H        -16.00823        8.48604       -4.05972
H        -15.24667        6.02240       -2.65338
H        -18.09344        8.47301       -3.06172
H        -19.92603        4.36934       -2.74219
H        -16.12478        3.95636       -2.69829
H        -18.65981        2.69023       -3.43850
H        -15.95163        1.45463       -2.78891
H        -18.67757        0.36217       -3.83314
H        -18.50315       -4.92285       -4.24944
H        -14.03270       -3.64484       -2.36024
H        -17.53229       -7.63386       -3.91879
