90

C        -11.68693       -6.16967       -6.84327
C        -11.90257       -7.51414       -6.78392
C        -10.87995       -8.48395       -6.98870
N        -10.04654       -9.28008       -7.16489
C        -13.18896       -8.08229       -6.55335
N        -14.23024       -8.56192       -6.36629
C        -10.38049       -5.51429       -7.17243
C        -10.61827       -4.16772       -7.45060
C         -9.62733       -3.25158       -7.79716
C         -8.29147       -3.70834       -7.83253
C         -8.03556       -5.05261       -7.52799
C         -9.06401       -5.97284       -7.19778
S         -6.34039       -5.39199       -7.60011
C         -5.97259       -3.79577       -8.00753
C         -7.07695       -2.99388       -8.11506
Br        -4.22282       -3.18266       -8.27643
C        -12.03797       -3.83230       -7.25520
O        -12.51949       -2.73446       -7.44843
C        -12.69978       -5.08718       -6.75615
C        -13.93542       -5.08229       -6.22139
C        -14.83655       -3.93981       -6.16608
C        -15.34299       -3.38569       -5.05249
C        -16.14206       -2.18195       -5.03663
C        -16.25092       -1.63052       -3.81746
C        -15.56642       -2.38023       -2.77668
S        -15.02762       -3.93749       -3.43117
C        -15.20144       -1.93500       -1.55804
C        -15.27179       -0.56376       -1.07904
C        -14.26293       -0.27313       -0.23797
C        -13.39301       -1.40576       -0.00486
S        -14.24187       -2.87740       -0.41611
C        -12.08613       -1.33136        0.31068
C        -11.13174       -2.45853        0.36632
C        -10.90908       -3.32346       -0.82556
C        -11.25141       -3.04827       -2.09546
S        -10.92441       -4.42427       -3.07162
F         -9.84682       -4.05291       -4.16137
C        -10.16289       -5.33368       -1.82513
C        -10.21040       -4.60701       -0.69682
C         -9.55228       -4.93060        0.53448
C         -9.61843       -4.03043        1.55028
C        -10.43140       -2.77992        1.50537
C        -10.47387       -1.89617        2.65931
C        -11.30904       -1.92875        3.76541
C        -10.99285       -0.90805        4.71743
C         -9.95035       -0.11946        4.33312
S         -9.31859       -0.60896        2.78053
C         -9.64130        0.89962        5.28996
C        -10.45274        0.81953        6.40597
S        -11.62666       -0.43019        6.26719
C        -10.43885        1.61349        7.59568
C         -9.30027        2.17056        8.03265
C         -9.23674        3.00355        9.21392
C         -8.32287        3.95810        9.43896
C         -8.31089        4.79180       10.61627
C         -7.35176        5.72366       10.60178
C         -6.51825        5.70349        9.41012
S         -7.04546        4.41118        8.33575
C         -5.49455        6.53731        9.14298
C         -5.04376        7.62689        9.99156
C         -4.00471        8.31178        9.49645
C         -3.55076        7.81483        8.22418
S         -4.49865        6.45877        7.68529
C         -2.53094        8.31291        7.52125
H         -9.87737       -2.21437       -7.99564
H         -8.78181       -6.98584       -6.94814
H         -7.03697       -1.94054       -8.36507
H        -14.35231       -5.96286       -5.74371
H        -15.06650       -3.48182       -7.12991
H        -16.56100       -1.75229       -5.93631
H        -16.77557       -0.70299       -3.63266
H        -15.98906        0.16340       -1.43183
H        -14.07031        0.70633        0.17767
H        -11.62796       -0.35352        0.44332
H        -11.72144       -2.15213       -2.47239
H        -12.03396       -4.98814       -3.58352
H         -9.66755       -6.27735       -1.98851
H         -8.96262       -5.82778        0.61864
H         -9.06721       -4.23090        2.46318
H        -12.10875       -2.64298        3.91042
H         -8.85672        1.64050        5.15644
H        -11.36896        1.76607        8.13265
H         -8.36734        2.01094        7.49637
H        -10.01219        2.82922        9.95757
H         -9.02436        4.66992       11.41930
H         -7.21376        6.42752       11.40987
H         -5.50634        7.87227       10.93624
H         -3.54520        9.15553        9.99196
H         -1.95618        9.16010        7.87844
H         -2.24117        7.88524        6.56641
