98

C         -2.82293        0.76980       -1.35409
C         -2.56822       -0.11605       -0.36643
C         -1.37019       -0.88360       -0.29663
N         -0.39640       -1.51606       -0.23271
C         -3.45416       -0.36884        0.72746
N         -4.15793       -0.58947        1.62291
C         -1.91120        1.12429       -2.50082
C         -2.47856        2.18261       -3.21613
C         -1.89097        2.78100       -4.32795
C         -0.65494        2.26391       -4.77533
C         -0.09019        1.18434       -4.08175
C         -0.70260        0.60266       -2.94039
S          1.39817        0.68762       -4.80494
C          1.28735        1.87481       -5.99823
C          0.16995        2.65807       -5.88458
Br         2.56791        2.09081       -7.34807
C         -3.78189        2.55539       -2.65503
O         -4.51235        3.43735       -3.05882
C         -4.01041        1.62865       -1.50497
C         -5.17478        1.66701       -0.83907
N         -6.24952        2.51003       -1.03437
C         -7.34693        2.62678       -0.23268
S         -7.95315        1.29515        0.68679
C         -9.01592        2.28312        1.55322
N         -9.74965        1.73643        2.66295
O        -10.44255        2.53852        3.30359
O         -9.63630        0.52981        2.91620
C         -9.04018        3.57466        1.07794
C         -8.11692        3.76532       -0.00884
C         -7.91968        5.03596       -0.66252
C         -7.62169        5.21110       -1.96199
C         -7.36816        6.50257       -2.57327
C         -8.00348        6.97399       -3.65632
C         -7.78990        8.27154       -4.25751
C         -8.78928        8.65029       -5.07357
C         -9.87352        7.68050       -5.12444
S         -9.32220        6.15049       -4.44041
C        -11.15658        7.91352       -5.45960
C        -11.73373        9.14313       -5.97369
C        -13.06539        9.21835       -5.80316
C        -13.60263        8.07735       -5.09028
S        -12.45398        6.77244       -5.08830
C        -14.77118        8.05325       -4.42900
C        -15.20103        6.98282       -3.44790
S        -16.18219        7.74332       -2.11148
C        -17.50288        6.50087       -2.14028
C        -16.98488        5.28904       -2.93257
C        -16.08632        5.88952       -4.03855
C        -18.11856        4.50350       -3.67222
O        -17.89949        3.52579       -4.39022
N        -19.41085        4.93039       -3.54908
N        -16.18009        4.36462       -2.04889
C        -16.77420        3.29851       -1.36758
C        -16.79447        2.00399       -1.72184
C        -16.18388        1.29568       -2.84858
C        -14.91680        1.46621       -3.29575
C        -14.33736        0.63014       -4.29232
N        -13.85401       -0.06080       -5.09032
C        -14.01385        2.38818       -2.67969
N        -13.24313        3.08183       -2.15661
C        -17.11157        0.17825       -3.18480
C        -17.98437        0.00030       -2.10515
C        -17.78804        1.07007       -1.10291
O        -18.38207        1.19536       -0.05242
C        -18.96418       -0.98691       -2.05970
C        -19.10795       -1.82645       -3.19016
C        -18.27248       -1.61285       -4.29968
C        -17.26409       -0.61364       -4.31734
S        -18.65836       -2.70546       -5.58434
C        -19.86373       -3.45752       -4.67328
C        -20.02284       -2.91243       -3.42738
Br       -20.88478       -4.89478       -5.30913
H         -2.37852        3.60758       -4.83814
H         -0.20413       -0.23495       -2.46942
H         -0.06806        3.47044       -6.56052
H         -5.35568        0.99886       -0.01057
H         -6.04010        3.25516       -1.70625
H         -9.67530        4.34831        1.49550
H         -8.06151        5.92104       -0.04399
H         -7.56871        4.36143       -2.64159
H         -6.61136        7.11303       -2.08688
H         -6.93071        8.88493       -4.02286
H         -8.82841        9.61666       -5.55558
H        -11.14320        9.92719       -6.42725
H        -13.66542       10.07076       -6.09044
H        -15.41037        8.93145       -4.50931
H        -14.33630        6.54196       -2.94279
H        -18.35320        6.99280       -2.61873
H        -17.78975        6.24119       -1.11645
H        -16.70904        6.29832       -4.84697
H        -15.45920        5.11556       -4.50023
H        -19.74758        5.52089       -2.80220
H        -20.10938        4.36757       -4.01984
H        -15.65264        4.93778       -1.37754
H        -17.33277        3.62550       -0.48885
H        -19.61454       -1.08633       -1.19517
H        -16.66671       -0.47469       -5.21290
H        -20.75394       -3.26012       -2.70703
