127

C          0.20883       -7.37365       -5.45538
F          0.28725       -6.97495       -6.73406
C          0.07232       -8.72461       -5.15705
C          0.03936       -9.75157       -6.21493
O          0.41021      -10.90216       -6.02273
O         -0.47659       -9.34573       -7.38991
C         -0.01361       -9.09831       -3.81804
F         -0.14400      -10.38750       -3.47170
C         -0.01582       -8.13434       -2.80829
F         -0.15438       -8.55365       -1.54153
C          0.08729       -6.77030       -3.10796
C          0.24017       -6.41210       -4.44676
F          0.46455       -5.13930       -4.80185
C          0.05662       -5.77620       -2.01577
N          0.55969       -6.04748       -0.83132
C          0.33099       -4.92095       -0.11079
C         -0.32439       -3.93488       -0.92650
C         -0.58679       -2.72615       -0.09760
O         -1.10173       -1.67357       -0.40015
C         -0.04928       -3.12521        1.21861
C          0.47860       -4.46097        1.12849
N          0.94655       -4.84966        2.34294
C          0.71953       -3.80465        3.09123
C          0.08469       -2.63782        2.44434
C         -0.55520       -4.40180       -2.15100
C         -1.31113       -3.80794       -3.21675
C         -1.32502       -2.48580       -3.45265
C         -2.04792       -1.82578       -4.52581
C         -1.30364       -1.11743       -5.41003
C         -1.94416       -0.42344       -6.50908
C         -1.40982        0.28954       -7.53730
C          0.06884        0.62890       -7.74994
C          0.83548       -0.40342       -8.62331
N          0.90359       -1.76911       -8.08812
C          0.30710        2.07073       -8.28670
N          1.71271        2.41928       -8.50423
C         -2.58331        0.71319       -8.32475
C         -2.71084        1.39037       -9.47742
C         -4.06077        1.77581      -10.07126
C         -5.25112        1.19330       -9.32053
C         -5.13459        0.48184       -8.18612
C         -3.81219        0.24264       -7.66974
C         -3.41915       -0.45802       -6.59774
C         -4.18519       -1.18320       -5.60941
C         -3.52076       -1.83866       -4.63693
C         -4.15440        3.28279      -10.19334
C         -4.62648        4.11231       -9.24687
C         -4.72011        5.56848       -9.48434
N         -4.83735        6.14703      -10.65913
C         -5.00228        7.46122      -10.34896
C         -4.97247        7.63479       -8.92352
C         -5.15071        9.06577       -8.58884
O         -5.18962        9.60047       -7.50424
C         -5.29321        9.67175       -9.93160
C         -5.20044        8.64169      -10.93332
N         -5.33925        9.19192      -12.16854
C         -5.50159       10.46058      -11.90460
C         -5.48319       10.86466      -10.48241
C         -4.78249        6.47713       -8.30112
C         -4.67564        6.27310       -6.89336
C         -3.60274        5.76887       -6.26254
C         -3.40952        5.95486       -4.81273
C         -2.72773        4.98309       -4.05580
C         -2.39720        5.21404       -2.71088
C         -2.72048        6.43838       -2.13536
C         -3.38784        7.41282       -2.89746
C         -3.75123        7.17923       -4.21167
S         -3.56185        8.95388       -2.01427
C         -2.50505        8.26720       -0.75462
C         -1.85409        9.12431        0.05544
C         -0.82432        8.73739        1.00202
C         -0.17176        9.54113        1.85233
C         -0.26778       10.97441        2.12373
C         -0.05725       11.97704        1.23848
C         -0.11682       13.35227        1.60075
N         -0.19688       14.47124        1.90372
C          0.43748       11.69936       -0.07372
N          0.92386       11.48844       -1.10362
C         -0.12913       11.12583        3.59350
C          0.49975        9.95871        4.07062
C          0.56421        8.93459        3.00689
O          1.04358        7.82491        3.09114
C          0.92118        9.80968        5.37888
C          0.66306       10.86113        6.25519
C         -0.02987       12.00411        5.81716
C         -0.43368       12.14312        4.48218
N         -2.32340        6.87206       -0.82984
C         -2.97097        6.02732        0.18664
H         -0.68033       -8.39567       -7.49484
H          0.96561       -3.74779        4.16217
H         -0.19062       -1.69291        2.86826
H         -1.87295       -4.47355       -3.86646
H         -0.73789       -1.80245       -2.83996
H         -0.22170       -1.07496       -5.32873
H          0.54613        0.61248       -6.75872
H          1.88007       -0.08820       -8.72683
H          0.41055       -0.42437       -9.63254
H          0.12859       -1.95596       -7.45945
H          0.80829       -2.42739       -8.86068
H         -0.13643        2.80119       -7.60068
H         -0.16376        2.20392       -9.25739
H          2.22746        2.40501       -7.62632
H          1.77866        3.36740       -8.87382
H         -1.85703        1.69649      -10.06368
H         -4.10222        1.35528      -11.08486
H         -6.23630        1.37106       -9.74495
H         -6.00524        0.08465       -7.67773
H         -5.26836       -1.18527       -5.65324
H         -4.07468       -2.37320       -3.86988
H         -3.79340        3.70064      -11.13335
H         -4.97263        3.74275       -8.28856
H         -5.65112       11.23575      -12.67255
H         -5.59306       11.84030      -10.05443
H         -5.46638        6.75202       -6.31723
H         -2.76425        5.33846       -6.80462
H         -2.41388        4.04871       -4.51790
H         -1.82806        4.47408       -2.15639
H         -4.23119        7.97584       -4.77361
H         -2.08710       10.18193       -0.02511
H         -0.62025        7.66614        1.05935
H          1.42809        8.90683        5.70412
H          0.98538       10.79141        7.29241
H         -0.24703       12.80057        6.52716
H         -0.96889       13.03989        4.18415
H         -2.71562        6.36739        1.19610
H         -2.65060        4.98307        0.10840
H         -4.06545        6.06587        0.09639
