122

C         -8.46890       -1.86051        0.37576
C         -8.07203       -3.13479        0.11286
C         -8.86936       -4.05109       -0.62611
N         -9.52117       -4.81098       -1.22716
C         -6.85146       -3.66106        0.62798
N         -5.85180       -4.07832        1.03452
C         -9.80298       -1.27364        0.01969
C         -9.98043       -0.13033        0.81699
C        -11.06685        0.71573        0.76442
C        -12.08705        0.40794       -0.11891
C        -11.99876       -0.76522       -0.91829
C        -10.83530       -1.58613       -0.85429
C        -13.09313       -1.07657       -1.74288
C        -14.22054       -0.24565       -1.79006
C        -14.27014        0.91981       -1.03091
C        -13.20557        1.24618       -0.19804
C         -8.87681        0.02172        1.74981
O         -9.01102        0.60376        2.80161
C         -7.76077       -0.84734        1.23229
C         -6.43474       -0.59124        1.34847
C         -5.79784        0.53101        2.00520
S         -6.34075        1.06366        3.56905
C         -5.30048        2.39365        3.61901
C         -4.38064        2.32749        2.60886
C         -4.61980        1.23826        1.69230
N         -3.73178        1.03321        0.63884
C         -4.28109        0.82871       -0.72191
C         -5.10420        2.01399       -1.20910
C         -2.31813        1.12771        0.83631
C         -1.69571        0.71593        1.97940
C         -0.25539        0.81923        2.15779
C          0.59641        0.47140        3.16544
C          0.46786       -0.24012        4.50704
C         -0.86354       -0.09740        5.28621
N         -1.95902       -0.99063        4.91909
C          0.98403       -1.70992        4.45206
N          0.24976       -2.62711        3.57807
C          1.91136        0.97835        2.72011
C          3.06000        1.19575        3.38566
C          4.31098        1.76877        2.70680
C          4.13889        2.00212        1.21343
C          2.96823        1.84572        0.57045
C          1.82841        1.41925        1.33652
C          0.52697        1.37537        1.02405
C         -0.14237        1.82427       -0.16837
C         -1.48341        1.72975       -0.23039
C          5.47497        0.85076        2.98154
C          6.77215        1.20942        3.07297
C          7.75919        0.27689        3.52762
S          7.72103       -1.33117        2.84718
C          9.06334       -1.84550        3.73309
C          9.57715       -0.83064        4.49757
C          8.83483        0.40988        4.41548
N          9.26061        1.50510        5.16698
C          8.41287        2.64483        5.58945
C          6.99599        2.35458        6.04716
C         10.64098        1.68454        5.39503
C         11.56679        2.27236        4.61440
C         13.04216        2.33937        4.71848
C         13.79730        2.27091        5.84313
C         15.21682        2.42394        5.83979
N         16.37078        2.54751        5.84398
C         13.23085        2.05840        7.13195
N         12.77628        1.86608        8.17952
C         13.54464        2.57907        3.32827
C         12.44352        2.82639        2.49894
C         11.19465        2.80938        3.26549
O         10.12076        3.19768        2.85285
C         12.52494        2.94678        1.12114
C         13.77411        2.77925        0.52189
C         14.92642        2.58543        1.33340
C         14.80111        2.50103        2.73801
C         16.17293        2.42658        0.70914
C         16.27647        2.39604       -0.68312
C         15.13935        2.54314       -1.47196
C         13.89731        2.75259       -0.87377
H        -11.10355        1.58548        1.41683
H        -10.79140       -2.45653       -1.50171
H        -13.09065       -1.98092       -2.34766
H        -15.06571       -0.50997       -2.42106
H        -15.13989        1.57021       -1.07465
H        -13.25992        2.15550        0.39826
H         -5.73440       -1.23639        0.82692
H         -5.36304        3.12021        4.41765
H         -3.56295        3.03326        2.52246
H         -4.87980       -0.08330       -0.76629
H         -3.47964        0.64616       -1.44770
H         -6.00062        2.16295       -0.59934
H         -5.43317        1.83901       -2.23906
H         -4.52321        2.94142       -1.19095
H         -2.29761        0.32694        2.78012
H          1.17608        0.27086        5.17621
H         -1.19930        0.94482        5.23765
H         -0.65359       -0.29921        6.34527
H         -2.84716       -0.52852        5.12212
H         -1.95400       -1.16959        3.91923
H          0.97179       -2.13274        5.46465
H          2.03344       -1.72244        4.13569
H         -0.70371       -2.71299        3.93634
H          0.17809       -2.22575        2.64432
H          3.14210        0.98952        4.44755
H          4.51172        2.74508        3.16969
H          5.00911        2.33975        0.65691
H          2.87510        2.02299       -0.49395
H          0.42807        2.29489       -0.95982
H         -1.98269        2.17278       -1.08439
H          5.18833       -0.17818        3.19695
H          7.08872        2.23293        2.89033
H          9.42406       -2.86095        3.64712
H         10.44918       -0.98246        5.11896
H          8.42340        3.43616        4.83317
H          8.89772        3.07885        6.47845
H          6.31115        2.18908        5.22199
H          6.59755        3.23672        6.56261
H          6.93754        1.50115        6.72575
H         10.89675        1.18894        6.32388
H         11.62129        3.09653        0.53650
H         15.69969        2.30887        3.31468
H         17.07677        2.29699        1.30187
H         17.24508        2.23994       -1.15166
H         15.21663        2.48862       -2.55494
H         13.01966        2.86108       -1.50804
