110

C          7.31039        5.29984       -1.41563
C          8.17020        6.32194       -1.22001
C          8.74942        7.04405       -2.30208
N          9.19839        7.63635       -3.19391
C          8.71275        6.57250        0.07414
N          9.22569        6.70813        1.10573
C          7.13125        4.57187       -2.68883
C          6.97353        3.20677       -2.37373
C          6.67135        2.24635       -3.31629
C          6.44869        2.68026       -4.62542
C          6.57571        4.06669       -4.96055
C          6.94973        5.00737       -3.98704
C          6.23365        4.48934       -6.24895
C          5.75730        3.57732       -7.19113
C          5.64967        2.22666       -6.86730
C          6.00564        1.77721       -5.59654
C          6.84615        3.03137       -0.90524
O          6.70220        1.99657       -0.29607
C          6.71781        4.43930       -0.39585
C          5.71594        4.65363        0.47449
C          4.91822        5.84829        0.64923
C          4.88449        6.49400        1.84047
C          3.96581        7.61297        1.78691
C          3.64336        8.45512        2.87872
N          3.36049        9.13272        3.78403
C          3.42673        7.67520        0.55968
C          3.93921        6.55938       -0.23808
C          3.50131        6.26757       -1.48684
C          2.59564        7.06372       -2.36261
C          2.52938        6.40943       -3.54255
C          3.25327        5.16569       -3.46048
C          3.82939        5.06483       -2.25297
C          3.12351        4.15679       -4.44351
N          2.92207        3.35303       -5.25499
C          1.72226        8.19119       -2.12343
C          1.66949        9.26938       -2.92013
C          0.71064       10.31398       -2.77817
O          0.25534       10.95234       -3.91160
C         -0.65103       11.92143       -3.59048
C         -0.81096       11.89549       -2.21913
C          0.06804       10.90512       -1.68635
C          0.28399       10.62416       -0.27040
O          1.34377       10.16527        0.14771
C         -0.82840       10.93799        0.69758
C         -1.21873       12.80024       -4.54160
C         -0.60255       13.97835       -4.78760
C         -1.30025       14.68213       -5.84266
C         -0.94626       15.97055       -6.30607
N         -0.64710       17.02551       -6.68475
C         -2.32893       13.93503       -6.27857
C         -2.31337       12.67497       -5.52918
C         -3.12872       11.62079       -5.73811
C         -4.06058       11.38345       -6.86358
C         -4.68346       10.21313       -6.59917
C         -4.19491        9.65773       -5.35887
C         -3.25214       10.46379       -4.84998
C         -4.65452        8.44384       -4.79906
N         -5.03514        7.44905       -4.33878
C         -4.25492       12.04531       -8.13403
C         -4.03317       11.42808       -9.30741
C         -4.30877       11.98904      -10.61265
C         -5.49387       12.40689      -11.08915
C         -5.84867       12.90144      -12.44340
C         -5.03680       13.55275      -13.31404
C         -5.49915       14.10054      -14.54501
N         -5.87075       14.54737      -15.54947
C         -3.66226       13.80798      -13.03503
N         -2.54295       14.00820      -12.80380
C         -7.32732       12.73269      -12.58237
C         -7.85343       12.41306      -11.32545
C         -6.78707       12.24890      -10.33585
O         -6.97895       12.00414       -9.16292
C         -9.20260       12.22324      -11.07408
C        -10.09191       12.34572      -12.14103
C         -9.59436       12.63082      -13.44339
C         -8.20765       12.81108      -13.65441
C        -10.50745       12.73186      -14.50336
C        -11.87795       12.57139      -14.28553
C        -12.35760       12.29981      -13.00726
C        -11.46898       12.18176      -11.94029
H          6.50404        1.21628       -3.01196
H          6.98593        6.06355       -4.23953
H          6.28044        5.54207       -6.51999
H          5.43261        3.92608       -8.16784
H          5.24132        1.52680       -7.59177
H          5.87200        0.72420       -5.35677
H          5.32174        3.79920        1.03115
H          5.42889        6.22444        2.73518
H          2.67598        8.37877        0.26275
H          1.91573        6.67439       -4.39390
H          4.31256        4.18427       -1.87312
H          1.03351        8.06779       -1.29250
H          2.32632        9.34152       -3.78450
H         -1.44659       12.56986       -1.66082
H         -1.72689       10.37822        0.42421
H         -1.03248       12.01092        0.70500
H         -0.52764       10.63611        1.70574
H          0.29157       14.34762       -4.30368
H         -3.06173       14.24198       -7.00525
H         -5.39567        9.71451       -7.24336
H         -2.73071       10.30110       -3.92260
H         -4.69157       13.03960       -8.10381
H         -3.59830       10.42869       -9.32379
H         -3.43141       11.95489      -11.25419
H         -9.53903       11.97691      -10.07052
H         -7.86380       13.00052      -14.66656
H        -10.16143       12.94529      -15.51300
H        -12.57299       12.66192      -15.11662
H        -13.42493       12.17942      -12.83930
H        -11.86288       11.96432      -10.94913
