91

C          3.84740      -10.76514       -7.31518
C          4.67550       -9.82458       -6.84973
C          5.96755       -9.50287       -7.38854
C          6.63250       -8.59195       -6.66412
C          5.91809       -8.15776       -5.47388
S          4.29609       -8.86056       -5.45544
C          6.41961       -7.40596       -4.47604
C          7.74566       -6.82199       -4.41510
C          8.05787       -6.31365       -3.21412
C          7.01022       -6.48082       -2.22776
S          5.55606       -7.08527       -2.97588
C          7.17412       -6.21106       -0.92517
C          6.20742       -6.46049        0.09328
O          5.26236       -7.46831        0.07189
C          4.51079       -7.45499        1.22972
C          4.99744       -6.41654        2.01687
C          6.06120       -5.81811        1.30746
O          6.83631       -4.78864        1.70532
S          4.52120       -5.86891        3.61148
C          3.45450       -8.43131        1.45065
S          2.13176       -8.09934        2.49670
C          1.44205       -9.64959        2.31093
C          2.13092      -10.37941        1.35477
C          3.30726       -9.68998        0.87436
C          4.21019      -10.36347       -0.12581
C          4.21152      -11.87973        0.10171
N          5.05550      -12.47683       -0.99883
O          6.25176      -12.65445       -0.74448
O          4.51165      -12.70485       -2.08599
C          2.81246      -12.49697        0.07407
N          2.93938      -13.89579        0.63556
O          2.94630      -14.02751        1.86431
O          3.06560      -14.81393       -0.18075
C          1.72449      -11.74446        0.86051
C          0.25961      -10.00159        3.03173
C          0.26288      -10.54285        4.26313
C         -0.92690      -11.01079        4.94304
C         -0.67746      -11.68969        6.07378
C          0.73575      -11.81714        6.37838
S          1.67918      -10.85098        5.23200
C          1.29284      -12.61077        7.31442
C          0.61309      -13.50221        8.23998
C          1.43432      -14.35796        8.87129
C          2.81959      -14.21465        8.48081
S          3.03504      -12.79396        7.49172
C          3.80873      -15.06052        8.81098
C          5.16256      -15.00157        8.27990
C          6.28029      -15.49636        8.83357
C          7.67062      -15.44730        8.32172
C          8.07185      -15.46697        7.02509
C          9.43912      -15.53269        6.63433
N         10.55780      -15.59278        6.31658
C          7.14745      -15.51443        5.94214
N          6.40738      -15.58377        5.04706
C          8.55916      -15.63967        9.51273
C          7.76834      -16.05245       10.58884
C          6.34237      -16.02772       10.23410
O          5.43470      -16.35336       10.97079
C          8.27717      -16.42356       11.82781
C          9.67896      -16.39732       11.99521
C         10.47434      -15.92635       10.93936
C          9.93001      -15.51244        9.69837
S         12.14933      -15.95164       11.36369
C         11.82213      -16.64108       12.86861
C         10.48506      -16.80560       13.11244
Br        13.16087      -17.13659       14.08113
H          4.11023      -11.38237       -8.16581
H          2.88996      -10.95297       -6.84180
H          6.36123       -9.97348       -8.27853
H          7.62910       -8.25745       -6.91295
H          8.42917       -6.81173       -5.25270
H          9.01357       -5.86233       -2.98270
H          8.11485       -5.78140       -0.58890
H          6.54031       -4.49190        2.58626
H          3.38276       -6.57160        3.72097
H          5.23654       -9.98833       -0.04237
H          3.85841      -10.11748       -1.13679
H          4.73017      -12.11335        1.04199
H          2.42988      -12.63559       -0.94557
H          1.31735      -12.32287        1.69767
H          0.87182      -11.59010        0.18325
H         -0.68019       -9.88645        2.50143
H         -1.92085      -10.86055        4.54389
H         -1.45518      -12.14131        6.67541
H         -0.45826      -13.50529        8.38464
H          1.10308      -15.11875        9.56602
H          3.57943      -15.90285        9.46151
H          5.22883      -14.49445        7.32031
H          7.61367      -16.75067       12.62355
H         10.60196      -15.13916        8.93376
H         10.08468      -17.22352       14.02832
