138

C        -15.81164      -10.63782        5.71263
C        -16.88523       -9.95475        6.27050
C        -18.06770       -9.78184        5.51221
C        -19.15266       -9.04160        6.10023
N        -20.01301       -8.43920        6.58911
C        -18.16442      -10.29441        4.19770
C        -19.32904      -10.07345        3.38685
N        -20.25191       -9.89198        2.70960
C        -17.08931      -10.99347        3.63913
C        -15.94355      -11.13542        4.40552
C        -14.66903      -11.69888        3.94086
O        -14.52487      -12.41899        2.97843
C        -13.65652      -11.23721        4.94612
C        -14.41487      -10.90560        6.16921
C        -13.96741      -10.98552        7.44425
C        -14.81988      -10.75946        8.55972
N        -15.54052      -10.56920        9.44924
C        -12.62757      -11.38264        7.75354
N        -11.54427      -11.70030        7.98228
C        -12.39169      -10.90912        4.63375
C        -11.89482      -11.00024        3.30343
S        -12.02069       -9.64112        2.26545
C        -11.30057      -10.46669        0.94792
C        -10.96831      -11.76746        1.28775
C        -11.28189      -12.06172        2.66390
C        -11.01258      -13.39833        3.28388
C        -10.00720      -14.21879        2.46896
C         -8.56312      -13.80330        2.75978
F         -8.46721      -12.80949        3.66509
F         -7.88155      -14.86243        3.26187
F         -7.89811      -13.41248        1.65292
C        -10.33470      -14.20289        0.95096
C        -11.64626      -14.91874        0.62299
F        -12.06215      -15.70040        1.64396
F        -12.65195      -14.08143        0.31039
F        -11.46162      -15.73731       -0.44119
C        -10.33597      -12.77639        0.36145
C        -11.14458       -9.79567       -0.29327
C        -10.02349       -9.11012       -0.54724
C         -9.75571       -8.38422       -1.77600
C         -9.71568       -9.04864       -2.96355
C         -9.07276       -8.40440       -4.09230
C         -8.68293       -8.90731       -5.29551
C         -9.10825      -10.19250       -6.00406
C         -9.80849       -9.84513       -7.35916
N        -10.29631      -10.99952       -8.12705
C         -8.00372      -11.25258       -6.23201
N         -7.32052      -11.70250       -5.02172
C         -7.66394       -7.94364       -5.72005
C         -6.56154       -8.11183       -6.45851
C         -5.49012       -7.03589       -6.56053
C         -5.85334       -5.70074       -5.92694
C         -6.94018       -5.55121       -5.15317
C         -7.73806       -6.72401       -4.92427
C         -8.54968       -7.02907       -3.91084
C         -8.85370       -6.27602       -2.72750
C         -9.40571       -6.94800       -1.70369
C         -5.12681       -6.82553       -7.98762
C         -5.98384       -6.96719       -9.00826
C         -5.56716       -6.76134      -10.33646
S         -6.28712       -7.70857      -11.54660
C         -5.26014       -7.08659      -12.76813
C         -4.46308       -6.06035      -12.26997
C         -4.64849       -5.87235      -10.85867
C         -3.88491       -4.85039      -10.06620
C         -3.28018       -3.75710      -10.93565
C         -4.31378       -2.68692      -11.28385
F         -5.53510       -2.93610      -10.77285
F         -3.91260       -1.49297      -10.78407
F         -4.45162       -2.52546      -12.61627
C         -2.56681       -4.35056      -12.17880
C         -1.33811       -5.17026      -11.79934
F         -0.52899       -4.46667      -10.97727
F         -1.64322       -6.32475      -11.17790
F         -0.62156       -5.47825      -12.90342
C         -3.50059       -5.21040      -13.05943
C         -5.37518       -7.55411      -14.10674
C         -5.84191       -8.77068      -14.43473
C         -6.02653       -9.22956      -15.79116
C         -6.45879       -8.52961      -16.85066
C         -6.11291       -9.09138      -18.19101
O         -5.97044      -10.25025      -18.51084
C         -5.84986       -7.91001      -19.03031
C         -5.28904       -7.93015      -20.29397
C         -4.98828       -6.69761      -20.89034
C         -5.23203       -5.49508      -20.18862
C         -5.80789       -5.51025      -18.90337
C         -6.14927       -6.72766      -18.32866
C         -6.80388       -7.11592      -17.05047
C         -7.73269       -6.38389      -16.38823
C         -8.61641       -6.95782      -15.42778
N         -9.40018       -7.39299      -14.69055
C         -7.95774       -5.00564      -16.67211
N         -8.08062       -3.87437      -16.90009
C         -4.89020       -4.21974      -20.76664
N         -4.61641       -3.19219      -21.20458
C         -4.41637       -6.69779      -22.20282
N         -3.95768       -6.71699      -23.26682
H        -16.82948       -9.51005        7.26209
H        -17.11597      -11.37427        2.61952
H        -11.72928      -10.43583        5.35226
H        -11.96439      -13.94026        3.34861
H        -10.66083      -13.28117        4.31633
H        -10.09176      -15.25687        2.81868
H         -9.54544      -14.76849        0.43724
H        -10.83948      -12.76526       -0.61330
H         -9.30671      -12.45055        0.17058
H        -11.94685       -9.84945       -1.02112
H         -9.22588       -9.04295        0.19378
H         -9.93335      -10.10847       -3.03862
H         -9.87537      -10.67376       -5.38077
H         -9.13180       -9.27367       -8.00456
H        -10.67674       -9.20568       -7.15819
H         -9.51600      -11.57271       -8.44669
H        -10.74751      -10.66934       -8.98188
H         -7.27308      -10.89071       -6.96057
H         -8.44289      -12.15078       -6.68095
H         -7.19794      -10.92832       -4.37255
H         -6.38844      -12.03168       -5.27070
H         -6.34688       -9.03659       -6.97531
H         -4.59863       -7.41396       -6.04239
H         -5.19721       -4.85028       -6.09600
H         -7.19721       -4.60425       -4.69353
H         -8.59172       -5.22764       -2.65417
H         -9.60148       -6.43444       -0.76690
H         -4.08746       -6.56378       -8.14283
H         -7.01097       -7.28385       -8.83797
H         -3.06559       -5.36497       -9.55006
H         -4.51365       -4.40784       -9.28358
H         -2.52334       -3.25560      -10.31624
H         -2.19623       -3.51415      -12.78539
H         -2.90683       -5.85058      -13.72243
H         -4.08934       -4.55364      -13.71056
H         -5.08055       -6.85180      -14.87604
H         -6.03662       -9.53044      -13.67526
H         -5.70212      -10.26291      -15.94237
H         -5.07813       -8.87589      -20.78587
H         -5.95502       -4.56678      -18.37902
