133

C          3.29846       -3.25843       -2.14732
C          2.38631       -2.44824       -1.56026
C          2.66497       -1.72912       -0.36286
N          2.91298       -1.16870        0.62403
C          1.15962       -2.10808       -2.20766
N          0.19968       -1.75213       -2.74830
C          4.75894       -3.20051       -1.87236
C          5.42384       -3.37129       -3.10134
C          6.79718       -3.26250       -3.23940
C          7.54263       -3.01304       -2.08509
C          6.90413       -2.91426       -0.82954
C          5.50572       -3.00801       -0.72076
Cl         7.79503       -2.68149        0.63432
Cl         9.25381       -2.85063       -2.26008
C          4.46091       -3.77279       -4.15001
O          4.71144       -3.98961       -5.31492
C          3.15735       -3.95683       -3.42520
C          2.32729       -4.91567       -3.86882
C          1.26360       -5.61193       -3.12812
C          1.56523       -6.79114       -2.41524
C          0.52970       -7.48835       -1.79421
C         -0.80301       -7.04013       -1.90486
C         -1.10584       -5.88377       -2.60230
C         -0.06803       -5.17036       -3.21284
C         -1.67787       -7.94312       -1.19136
C         -0.91604       -8.96198       -0.59148
C          0.57357       -8.74103       -0.90161
C          1.17971       -9.98394       -1.60928
C          0.53790      -10.37758       -2.94076
C          1.34074       -8.45456        0.42303
C          0.88724       -7.21451        1.20200
C         -1.51222       -9.95217        0.19156
C         -2.90411       -9.94210        0.37315
C         -3.64930       -8.91356       -0.25934
C         -3.04637       -7.91172       -1.02866
C         -3.57748      -10.94860        1.23436
S         -4.97002      -10.44921        2.11626
C         -5.24055      -11.99253        2.77577
C         -4.24061      -12.87737        2.42699
C         -3.28621      -12.28129        1.50973
C         -2.16605      -13.10997        0.93181
C         -2.43643      -14.62309        0.99936
C         -3.42849      -15.04808       -0.06836
O         -4.34973      -14.36556       -0.48515
O         -3.21827      -16.30000       -0.53623
C         -2.91428      -15.04912        2.39216
O         -1.84243      -14.85179        3.32909
C         -4.18564      -14.32101        2.86040
C         -6.38062      -12.18555        3.59412
C         -7.53551      -12.60824        3.05400
C         -8.76382      -12.78240        3.83784
C         -8.71931      -13.18454        5.17736
C         -9.91593      -13.31236        5.85784
C        -11.15265      -13.05695        5.23207
C        -11.21156      -12.70072        3.90300
C        -10.00584      -12.56671        3.20218
C        -12.21442      -13.25136        6.18826
C        -11.65420      -13.67731        7.39802
C        -10.12574      -13.70255        7.32021
C         -9.55855      -15.11219        7.64517
C        -10.05199      -16.24231        6.74271
C         -9.47919      -12.65285        8.27594
C         -9.82598      -11.18915        7.99133
C        -12.45406      -14.02330        8.46548
C        -13.83558      -13.81800        8.38334
C        -14.39020      -13.35913        7.17237
C        -13.58458      -13.08913        6.05972
C        -14.73101      -14.17635        9.49927
C        -14.45968      -14.12490       10.81444
C        -15.23498      -14.69770       11.93663
C        -16.58414      -14.69735       12.06697
C        -17.22612      -15.13745       13.25067
N        -17.74007      -15.50285       14.22990
C        -17.45525      -14.18216       11.05753
N        -18.14892      -13.76956       10.22788
C        -14.23132      -15.08205       12.97507
C        -13.00747      -14.48436       12.63793
C        -13.15102      -13.69564       11.41621
O        -12.35940      -12.85328       11.05257
C        -11.82735      -14.66530       13.34183
C        -11.87382      -15.47946       14.46852
C        -13.08889      -16.08409       14.85139
C        -14.26726      -15.89582       14.09832
Cl       -13.19803      -17.09344       16.25145
Cl       -10.40143      -15.71909       15.33821
H          7.26899       -3.38362       -4.21033
H          5.04093       -2.93813        0.25889
H          2.52415       -5.36932       -4.84233
H          2.58319       -7.16738       -2.36441
H         -2.12987       -5.53304       -2.68146
H         -0.32178       -4.27505       -3.77668
H          1.10945      -10.85279       -0.94017
H          2.25046       -9.82359       -1.78807
H         -0.54311      -10.52117       -2.85344
H          0.96387      -11.32428       -3.29196
H          0.72788       -9.62697       -3.71356
H          2.41253       -8.34388        0.21504
H          1.24544       -9.32079        1.09125
H          1.22509       -6.29498        0.71329
H          1.31791       -7.22748        2.20843
H         -0.19946       -7.16251        1.31665
H         -0.89004      -10.69688        0.67377
H         -4.73168       -8.86794       -0.15212
H         -3.65142       -7.12938       -1.47348
H         -1.25873      -12.89160        1.51120
H         -1.97091      -12.82133       -0.10649
H         -1.47893      -15.11366        0.77682
H         -2.44027      -16.76153       -0.17405
H         -3.11183      -16.12757        2.40766
H         -1.89855      -13.94006        3.67229
H         -4.25711      -14.37031        3.95472
H         -5.06019      -14.83622        2.44434
H         -6.28818      -11.93728        4.64569
H         -7.61814      -12.80013        1.98728
H         -7.78418      -13.38260        5.68637
H        -12.15910      -12.52471        3.40613
H        -10.04653      -12.27671        2.15769
H         -9.79946      -15.37765        8.68350
H         -8.46241      -15.09119        7.58495
H        -11.14196      -16.33243        6.75945
H         -9.63685      -17.19709        7.08137
H         -9.73226      -16.09560        5.70676
H         -8.38495      -12.74173        8.23082
H         -9.75951      -12.87333        9.31438
H         -9.39165      -10.85337        7.04395
H         -9.41620      -10.54568        8.77714
H        -10.90591      -11.02258        7.95594
H        -11.97608      -14.43325        9.34404
H        -15.46415      -13.20343        7.07731
H        -14.02268      -12.75575        5.12681
H        -15.67180      -14.59365        9.14385
H        -10.90528      -14.20004       13.00386
H        -15.17177      -16.40745       14.41224
