128

C          4.35771       -4.62261       -2.53314
C          4.58543       -4.34750       -1.22611
C          4.51299       -3.02833       -0.70137
N          4.42103       -1.94229       -0.29153
C          5.04363       -5.34777       -0.31442
N          5.48689       -6.11679        0.43047
C          4.28944       -3.62026       -3.62714
C          4.78313       -4.23401       -4.79314
C          4.93828       -3.56019       -5.99271
C          4.54188       -2.22188       -6.03788
C          3.97798       -1.60515       -4.90067
C          3.84995       -2.30603       -3.68917
Cl         3.40379        0.02589       -4.93237
Cl         4.74680       -1.37906       -7.53184
C          4.98919       -5.68104       -4.56394
O          5.41036       -6.48594       -5.36558
C          4.45125       -5.93152       -3.18599
C          3.86210       -7.11692       -2.94205
C          2.85157       -7.40939       -1.90411
C          2.75630       -8.69757       -1.34882
C          1.71030       -8.96798       -0.46546
C          0.78318       -7.96362       -0.11147
C          0.85857       -6.70207       -0.66352
C          1.86853       -6.44685       -1.58556
C         -0.24458       -8.52262        0.73174
C         -0.03186       -9.90417        0.86446
C          1.30462      -10.29160        0.20426
C          1.14071      -11.45009       -0.81855
C          0.21177      -11.17070       -2.00003
C          2.32375      -10.70613        1.30465
C          2.67025       -9.61967        2.32640
C         -0.96842      -10.70842        1.50708
C         -2.15483      -10.13761        2.00204
C         -2.28871       -8.72692        1.94226
C         -1.33517       -7.91611        1.32002
C         -3.28689      -10.97348        2.48345
S         -4.25342      -10.39470        3.79267
C         -5.46827      -11.61542        3.63744
C         -5.10997      -12.47020        2.60485
C         -3.80586      -12.17926        2.04181
C         -3.21404      -12.98394        1.05524
C         -3.99105      -14.09931        0.64137
C         -3.38656      -15.02856       -0.39239
F         -2.12575      -14.64766       -0.76792
F         -3.24887      -16.31179        0.04264
F         -4.09808      -15.08194       -1.55184
C         -5.31492      -14.32638        1.13378
O         -5.97551      -15.40349        0.58106
C         -7.39785      -15.29472        0.53129
C         -5.91337      -13.52512        2.13642
C         -6.61945      -11.60374        4.58491
C         -7.23313      -12.80447        4.98102
C         -8.34824      -12.78357        5.81551
C         -8.79938      -11.57861        6.38537
C         -8.18213      -10.38488        6.05993
C         -7.11785      -10.40143        5.14278
C         -9.90059      -11.85816        7.28276
C        -10.18532      -13.23908        7.24978
C         -9.21490      -13.96119        6.29148
C        -10.06368      -14.55759        5.12686
C         -9.30897      -15.34862        4.06599
C         -8.38862      -15.04258        7.02917
C         -7.49933      -14.52605        8.16047
C        -11.22766      -13.78401        7.99937
C        -12.01710      -12.93028        8.77892
C        -11.68071      -11.56116        8.86323
C        -10.62330      -11.01956        8.11421
C        -13.16201      -13.45701        9.54805
C        -14.43756      -13.56810        9.13040
C        -15.65745      -13.89240        9.91833
C        -15.76357      -14.79957       10.92862
C        -17.01491      -15.14261       11.53019
N        -18.02914      -15.41202       12.00360
C        -14.63698      -15.53050       11.40289
N        -13.71363      -16.12731       11.79888
C        -16.79044      -13.18097        9.25133
C        -16.33688      -12.73642        7.99993
C        -14.93279      -13.11863        7.78860
O        -14.37331      -13.12794        6.71418
C        -17.10683      -11.99458        7.11695
C        -18.40731      -11.67648        7.50011
C        -18.90319      -12.11649        8.74440
C        -18.09197      -12.86386        9.62586
Cl       -20.51572      -11.75509        9.25549
Cl       -19.34219      -10.71376        6.41289
H          5.33517       -4.06911       -6.86634
H          3.39508       -1.80895       -2.83678
H          4.00506       -7.93073       -3.65602
H          3.45124       -9.48539       -1.62831
H          0.11011       -5.94867       -0.44416
H          1.83848       -5.48986       -2.09483
H          0.76931      -12.34594       -0.30371
H          2.12308      -11.72248       -1.22739
H         -0.76824      -10.80878       -1.67778
H          0.05224      -12.09117       -2.57245
H          0.64625      -10.43546       -2.68434
H          3.26101      -11.03405        0.83718
H          1.93295      -11.57359        1.85397
H          3.24997       -8.81407        1.86473
H          3.27850      -10.04099        3.13271
H          1.77874       -9.18334        2.78624
H         -0.77472      -11.77077        1.59106
H         -3.16920       -8.23189        2.34739
H         -1.47766       -6.84168        1.27440
H         -2.24534      -12.81082        0.60959
H         -7.70644      -14.36531        0.03966
H         -7.83451      -15.37306        1.52919
H         -7.78611      -16.13434       -0.05179
H         -6.91487      -13.69824        2.49022
H         -6.83944      -13.76304        4.66290
H         -8.50922       -9.44540        6.49369
H         -6.67104       -9.44383        4.88270
H        -10.61259      -13.75267        4.61787
H        -10.82956      -15.22968        5.53619
H         -8.49965      -14.76827        3.63068
H         -9.98318      -15.61427        3.24452
H         -8.89528      -16.27788        4.46673
H         -7.73604      -15.56820        6.32173
H         -9.06769      -15.79876        7.44314
H         -6.64001      -13.97499        7.76491
H         -7.10796      -15.36795        8.74006
H         -8.04024      -13.87228        8.84996
H        -11.41749      -14.85190        7.97106
H        -12.23635      -10.89958        9.52418
H        -10.38177       -9.96394        8.19040
H        -12.88565      -13.68343       10.57411
H        -16.68763      -11.65853        6.17254
H        -18.51037      -13.15409       10.58531
