86

C          1.92225        2.41570        5.03086
S          2.03841        0.71997        5.39793
C          3.78016        0.69686        5.19822
C          4.16739        1.95309        4.82639
C          3.16504        2.87603        4.73718
O          3.65119        4.06281        4.35238
C          5.03015        3.83873        4.19352
O          5.83746        4.67646        3.82245
O          5.34368        2.50419        4.50111
C          4.52576       -0.48657        5.40001
C          5.07826       -0.84456        6.58483
N          4.99201       -0.09552        7.82128
O          4.00823        0.62937        8.01925
O          5.91260       -0.26131        8.62733
C          5.86633       -2.04742        6.46064
C          5.82802       -2.45602        5.18406
C          4.97247       -1.53220        4.42383
C          4.68057       -1.63072        3.10356
C          3.88290       -0.67019        2.33443
C          3.82713       -1.08671        1.06059
C          4.57291       -2.31658        0.95288
N          4.71880       -3.03630       -0.29289
O          3.80649       -2.90151       -1.12040
O          5.74658       -3.69891       -0.48382
C          5.10921       -2.68789        2.13604
C          5.90132       -3.87114        2.36103
C          5.49549       -4.96391        3.02704
C          6.39810       -6.04538        3.26716
S          6.30435       -6.84218        4.79176
C          7.71987       -7.80833        4.53100
C          8.20125       -7.57445        3.25519
C          7.40618       -6.62052        2.51506
C          7.66102       -6.28071        1.17972
C          8.79655       -6.91749        0.63352
C          9.18136       -6.56826       -0.78091
C          9.60753       -7.82262        1.38978
C          9.33754       -8.20511        2.72481
C          8.16856       -8.72683        5.53118
C          7.99470       -8.51351        6.84428
C          8.40038       -9.45129        7.85295
C          9.19861       -9.12350        8.88879
C          9.36556      -10.30550        9.73858
C          8.56367      -11.36320        9.10115
C          8.00644      -10.84209        7.99575
C          8.35786      -12.69925        9.51391
N          8.18405      -13.79856        9.84284
C         10.10739      -10.36153       10.86432
C         10.25478      -11.53538       11.72236
C         11.08308      -11.22484       12.73688
C         11.49071       -9.83789       12.58992
C         10.92383       -9.31064       11.49101
C         11.12671       -7.97334       11.07908
N         11.29789       -6.87532       10.75007
C         11.43571      -12.16300       13.76479
C         12.70436      -12.48274       14.05850
C         13.00131      -13.43939       15.06295
S         14.54100      -13.39124       15.89796
C         14.15667      -14.74950       16.90845
C         12.92241      -15.20077       16.56872
C         12.29952      -14.49640       15.57376
O         11.09966      -15.03224       15.31048
C         10.99462      -16.11563       16.19385
O         10.03481      -16.86624       16.26739
O         12.14988      -16.20967       16.98601
H          0.97149        2.93082        5.04768
H          6.41948       -2.51115        7.26473
H          6.37972       -3.30413        4.82154
H          3.42739        0.24038        2.67641
H          3.33548       -0.59123        0.23701
H          6.90704       -3.80755        1.94643
H          4.51377       -4.99247        3.49565
H          7.05850       -5.60669        0.58628
H          9.74622       -7.37985       -1.24835
H          9.78857       -5.65765       -0.78711
H          8.28697       -6.39941       -1.39127
H         10.48531       -8.25520        0.90710
H          9.97246       -8.90336        3.25413
H          8.68808       -9.62168        5.19645
H          7.53291       -7.60381        7.22177
H          9.62328       -8.14402        9.03116
H          7.34223      -11.34927        7.31017
H          9.80753      -12.50664       11.59207
H         12.14269       -9.32847       13.28534
H         10.59711      -12.62140       14.28511
H         13.52763      -12.01585       13.52400
H         14.85166      -15.11573       17.65069
