100

C         -6.77590        1.19235        6.05949
C         -8.01665        1.82552        6.07552
F         -8.18674        2.91283        6.83965
C         -9.06505        1.34573        5.30394
F        -10.24698        1.97675        5.30146
C         -8.90180        0.20571        4.52645
C         -7.66723       -0.45920        4.50988
C         -6.57121        0.05390        5.26398
C         -5.30167       -0.56872        5.18991
C         -5.12241       -1.69943        4.39884
C         -6.24338       -2.20761        3.73132
C         -7.49846       -1.61881        3.75386
C         -5.89476       -3.40574        2.96743
O         -6.69421       -4.19836        2.51614
C         -4.39423       -3.45525        2.94622
C         -3.92897       -2.52458        4.01300
C         -2.70001       -2.47604        4.58545
C         -1.61513       -3.29417        4.15732
N         -0.72413       -3.94047        3.79046
C         -2.39163       -1.62517        5.68518
N         -2.14369       -0.93867        6.58726
C         -3.71479       -4.12780        2.00071
C         -4.35573       -4.85180        0.95648
O         -4.68827       -6.18562        1.04806
C         -5.28114       -6.61412       -0.13352
C         -5.33018       -5.50525       -0.96027
C         -4.73106       -4.43171       -0.30288
F         -4.56378       -3.23256       -0.78610
F         -5.85743       -5.45488       -2.15014
C         -5.71500       -7.94824       -0.33678
N         -6.14006       -8.80786        0.68255
C         -6.20346       -8.49506        2.08780
C         -6.49050      -10.07405        0.18793
O         -6.89061      -11.06396        0.76452
C         -6.23924       -9.92818       -1.24950
C         -5.75693       -8.59499       -1.50728
C         -5.49331       -8.50728       -2.96030
O         -5.03077       -7.56792       -3.57321
N         -5.89399       -9.77541       -3.43280
C         -5.85649      -10.13387       -4.83070
C         -6.30973      -10.60237       -2.39363
C         -6.75668      -11.95120       -2.57130
C         -6.18025      -13.00530       -1.96939
C         -6.60108      -14.41272       -2.11650
C         -6.43155      -15.36020       -1.08706
C         -6.89881      -16.72042       -1.20227
N         -6.70770      -17.57991       -0.17353
C         -6.05566      -17.13819        0.94021
C         -5.60191      -15.84579        1.04137
N         -5.79126      -14.95835        0.03360
C         -4.87801      -15.35537        2.17345
N         -4.26943      -14.97708        3.09379
C         -5.85031      -18.10568        1.97595
N         -5.66166      -18.87115        2.82849
C         -7.53459      -17.19889       -2.37123
C         -7.55558      -16.31453       -3.49083
C         -7.11367      -14.89007       -3.35233
N         -7.25475      -14.19695       -4.49718
S         -7.82978      -15.22503       -5.64587
N         -7.94259      -16.60378       -4.74757
C         -8.08137      -18.57678       -2.48541
C         -9.12218      -19.02945       -3.20846
C         -9.23958      -20.50842       -3.47147
O         -8.79520      -21.42200       -2.81042
C         -9.92712      -20.61358       -4.77854
C        -10.10962      -21.75406       -5.54225
C        -10.62749      -21.60465       -6.83888
C        -10.88370      -20.29694       -7.35527
C        -11.32085      -20.14946       -8.67919
C        -11.55573      -21.27228       -9.46412
C        -11.35724      -22.54522       -8.94884
C        -10.88468      -22.71950       -7.65054
F        -11.61805      -23.62273       -9.70117
F        -11.98649      -21.11174      -10.72270
C        -10.71029      -19.16764       -6.53813
C        -10.29281      -19.33775       -5.22749
C        -10.08088      -18.38635       -4.11357
C        -10.81614      -17.27292       -3.88146
C        -10.68925      -16.53383       -2.66902
N        -10.53730      -15.92852       -1.69303
C        -11.76948      -16.77847       -4.81543
N        -12.52185      -16.37223       -5.60042
H         -5.97879        1.60378        6.67361
H         -9.74318       -0.14604        3.93476
H         -4.48442       -0.11829        5.74467
H         -8.30932       -2.05080        3.17244
H         -2.63504       -4.10743        1.93061
H         -6.76977       -7.57255        2.23952
H         -5.18688       -8.38984        2.47699
H         -6.69818       -9.30496        2.63268
H         -5.63823       -9.25456       -5.44483
H         -6.83022      -10.53377       -5.12832
H         -5.07777      -10.88345       -5.00019
H         -7.62865      -12.06582       -3.20987
H         -5.35828      -12.83987       -1.27325
H         -7.50001      -19.31451       -1.92533
H         -9.83519      -22.72647       -5.14173
H        -11.49463      -19.16803       -9.11348
H        -10.73194      -23.73157       -7.28551
H        -10.89507      -18.17775       -6.94690
