108

C          1.71337        1.63720        4.19214
C          2.99875        1.60831        4.72928
F          3.45234        2.67367        5.40390
C          3.80545        0.49191        4.56725
F          5.03727        0.46554        5.09399
C          3.34926       -0.60776        3.84919
C          2.06844       -0.59265        3.27656
C          1.22219        0.54022        3.46293
C         -0.08260        0.54793        2.91376
C         -0.52790       -0.53053        2.15387
C          0.34452       -1.61151        1.96970
C          1.61661       -1.67645        2.51826
C         -0.28693       -2.66102        1.15697
O          0.28985       -3.60513        0.66100
C         -1.73204       -2.27249        1.04868
C         -1.81150       -0.84341        1.45001
C         -2.77806        0.04306        1.10441
C         -3.90313       -0.32800        0.31135
N         -4.81754       -0.64128       -0.33045
C         -2.71519        1.42568        1.43981
N         -2.65896        2.55261        1.71016
C         -2.71747       -3.16324        0.84210
C         -2.58481       -4.58110        0.59409
C         -3.11891       -5.52033        1.40558
C         -2.82243       -6.85058        0.85723
C         -2.11334       -6.59656       -0.40892
C         -1.97222       -5.26465       -0.53609
C         -1.65786       -7.52716       -1.37127
N         -1.30829       -8.29309       -2.17369
C         -3.13677       -8.03005        1.43913
C         -2.85005       -9.35978        0.89131
C         -3.29347      -10.29109        1.76016
C         -3.87188       -9.60446        2.90453
C         -3.79899       -8.27560        2.72933
C         -4.29090       -7.35014        3.67690
N         -4.70334       -6.59868        4.45964
C         -3.17344      -11.68902        1.51773
C         -3.16872      -12.37126        0.29297
C         -3.03847      -13.76548        0.50928
C         -2.94899      -14.03324        1.82638
S         -3.01236      -12.76715        2.90031
C         -2.81478      -15.35638        2.00810
C         -2.82532      -15.97356        0.80933
N         -2.96562      -14.97813       -0.11639
C         -2.68715      -17.36750        0.96681
C         -2.58212      -17.69729        2.32461
S         -2.65363      -16.28927        3.37763
C         -2.43143      -18.97226        2.94332
C         -2.33264      -20.09008        2.21119
C         -2.18555      -21.39322        2.79022
C         -1.13119      -22.19589        2.54215
C         -1.30677      -23.43752        3.30127
C         -2.60416      -23.29668        3.98393
C         -3.09659      -22.08534        3.67916
C         -3.28728      -24.23121        4.79326
N         -3.86772      -24.99769        5.44506
C         -0.41882      -24.45170        3.36090
C         -0.56714      -25.66778        4.16199
C          0.56478      -26.39067        4.05913
C          1.46055      -25.70927        3.13854
C          0.89271      -24.56948        2.70881
C          1.50024      -23.71078        1.76506
N          2.01580      -23.02238        0.98580
C          0.77786      -27.63671        4.74099
C          1.75343      -27.94554        5.60620
C          1.95473      -29.40426        5.88647
O          1.20431      -30.32534        5.64046
C          3.29867      -29.51728        6.46666
C          3.91548      -30.70204        6.84146
C          5.18205      -30.62828        7.42843
C          5.81476      -29.35928        7.57822
C          7.07144      -29.29114        8.19759
C          7.68319      -30.44805        8.66936
C          7.06908      -31.68258        8.51632
C          5.82932      -31.78277        7.89306
F          7.66110      -32.79159        8.97950
F          8.86958      -30.35598        9.28501
C          5.16918      -28.18470        7.13845
C          3.88641      -28.25081        6.60893
C          2.87753      -27.21428        6.21587
C          2.91354      -25.91291        6.59831
C          1.76842      -25.06425        6.59018
N          0.86262      -24.34154        6.65444
C          4.07408      -25.29138        7.14213
N          5.02607      -24.77507        7.55853
H          1.11402        2.53193        4.34213
H          4.00830       -1.46508        3.73911
H         -0.71379        1.40994        3.10965
H          2.23150       -2.55800        2.35457
H         -3.75911       -2.86332        0.93562
H         -3.67508       -5.29904        2.30091
H         -1.48918       -4.74901       -1.35431
H         -2.35942       -9.58423       -0.04052
H         -4.29846      -10.11500        3.75671
H         -3.26315      -11.89604       -0.67569
H         -3.00675      -15.12045       -1.11803
H         -2.66847      -18.08176        0.15493
H         -2.37984      -19.02564        4.02949
H         -2.34449      -20.07168        1.12505
H         -0.30541      -21.91977        1.90797
H         -4.04444      -21.67464        4.00309
H         -1.39805      -25.93561        4.79366
H          2.41947      -26.10087        2.83055
H          0.08366      -28.42142        4.42825
H          3.39987      -31.64949        6.70359
H          7.57994      -28.34119        8.34379
H          5.37443      -32.76505        7.79595
H          5.69457      -27.24337        7.25838
