113

C         -0.14225        1.23829       -0.31203
C         -1.34049        1.75994       -0.78295
F         -2.49601        1.31090       -0.27601
C         -1.36041        2.71426       -1.79078
C         -0.15777        3.17924       -2.32767
C          1.06980        2.65647       -1.88881
C          1.07090        1.64897       -0.87811
C          2.26857        1.01536       -0.50878
C          3.43020        1.31752       -1.20127
C          3.43697        2.39291       -2.10238
C          2.28405        3.07503       -2.45613
C          4.80236        2.60748       -2.63270
O          5.14987        3.47913       -3.40169
C          5.65589        1.54565       -1.99431
C          4.72696        0.61118       -1.35351
C          4.84938       -0.73772       -1.31581
C          5.85951       -1.40552       -2.06508
N          6.62422       -1.96076       -2.74382
C          3.93061       -1.57835       -0.62875
N          3.20109       -2.24621       -0.01853
C          6.99162        1.68819       -1.93276
C          7.96098        0.92881       -1.15952
C          7.86810        0.30967        0.04196
C          9.12298       -0.21458        0.62396
O          9.08003       -0.89035        1.82229
C          7.92998       -0.63662        2.61836
C          6.71011       -0.80151        1.74729
O          6.69556        0.24051        0.76611
C         10.26974        0.02618       -0.06029
Si         9.82487        0.93760       -1.66496
C         10.18841       -0.07899       -3.16939
C         10.52198        2.64531       -1.79583
C         11.61979       -0.20038        0.38114
C         12.84380        0.01782       -0.29040
C         13.92823        0.03173        0.63539
C         13.50217       -0.34533        1.85134
S         11.91775       -0.77897        2.03322
C         14.45356       -0.09765        2.76611
C         15.52996        0.43594        2.15680
N         15.24986        0.36364        0.81311
C         16.12001        0.82627       -0.23361
C         16.44992        0.91874        3.12930
C         15.86019        0.85265        4.39812
S         14.39672       -0.11521        4.42803
C         16.25269        1.47276        5.60538
C         17.13015        1.00540        6.51249
C         17.18789        1.77442        7.76960
O         18.01964        1.35323        8.78531
C         18.25071       -0.05777        8.72622
C         18.82211       -0.39588        7.36883
O         17.84195       -0.16295        6.35353
C         16.35239        2.83651        7.88330
Si        15.39855        3.04171        6.23368
C         15.87247        4.53821        5.24692
C         13.56313        2.90668        6.36303
C         16.15627        3.74915        8.99651
C         16.16069        3.42533       10.30182
C         16.30283        4.45450       11.39199
O         16.04036        5.63707       11.33612
C         16.88981        3.71883       12.54584
C         17.19160        4.19638       13.80847
C         17.73387        3.28946       14.74232
C         18.07797        1.96801       14.33239
C         18.63705        1.07278       15.25135
C         18.78726        1.45346       16.57566
C         18.42091        2.72111       17.00534
C         17.91397        3.64796       16.08727
F         19.26771        0.57067       17.45936
C         17.79349        1.53234       13.03677
C         17.09436        2.37733       12.19421
C         16.33544        2.13359       10.95653
C         15.63663        0.99567       10.72169
C         14.53208        0.97518        9.82851
N         13.58139        0.95457        9.15924
C         15.89009       -0.22786       11.40475
N         16.15935       -1.23260       11.91686
H         -0.17744        0.47654        0.46257
H         -2.31288        3.08172       -2.15994
H         -0.19113        3.92258       -3.12185
H          2.24744        0.24559        0.25712
H          2.32593        3.86197       -3.20428
H          7.41343        2.53360       -2.48302
H          7.92463       -1.36504        3.43483
H          8.00119        0.36939        3.04854
H          5.79386       -0.72299        2.33847
H          6.70987       -1.77141        1.23347
H          9.65243       -1.03242       -3.14997
H         11.25781       -0.30359       -3.23945
H          9.90344        0.44892       -4.08444
H         10.39939        3.19925       -0.86011
H         10.02266        3.21492       -2.58621
H         11.59022        2.62246       -2.03232
H         12.93591        0.30406       -1.32932
H         17.15231        0.83307        0.12566
H         15.81228        1.83460       -0.52028
H         16.03769        0.14438       -1.08433
H         17.39064        1.41052        2.92260
H         17.30860       -0.59150        8.90329
H         18.94490       -0.31580        9.53135
H         19.10115       -1.45300        7.33145
H         19.70781        0.21055        7.15006
H         16.95431        4.60955        5.10333
H         15.53206        5.45761        5.73279
H         15.40911        4.50209        4.25445
H         13.24946        1.90064        6.65209
H         13.08664        3.12792        5.40231
H         13.16092        3.60703        7.10061
H         16.08658        4.80751        8.73312
H         16.96300        5.22345       14.07068
H         18.91416        0.06204       14.96264
H         18.51995        2.98070       18.05303
H         17.62576        4.63330       16.43895
H         18.05522        0.52160       12.73353
