122

C          1.01316        1.25808        1.62074
C          1.49676        2.67276        2.05827
C          2.16151        3.54954        1.17822
C          2.47760        4.85910        1.55857
C          2.14914        5.32284        2.82829
C          1.48407        4.48608        3.71540
C          1.14509        3.18706        3.32861
C          1.04996        0.14468        2.70334
C          0.17588       -0.96597        2.65676
C          0.17426       -1.94210        3.65718
C          1.07555       -1.86005        4.71052
C          1.98850       -0.81207        4.75471
C          1.98151        0.17319        3.76124
C          1.55737        0.79064        0.21327
C          0.66234        0.99333       -0.80137
C         -0.59514        1.68857       -0.47100
C         -1.43297        2.39639       -1.26914
C         -1.11298        2.73123       -2.61557
N         -0.82607        3.05920       -3.69022
C         -2.66471        2.94134       -0.78539
N         -3.67628        3.37331       -0.41535
S         -0.87836        1.58199        1.24550
C          0.79817        0.43730       -2.10953
N          0.85896        0.00047       -3.18149
C          2.88373        0.21303       -0.05650
S          3.63236       -0.92320        1.03049
C          5.09746       -1.11653        0.13166
C          4.99850       -0.36944       -1.01642
C          3.79778        0.36131       -1.06728
C          3.81950        1.14992       -2.25774
C          4.92485        0.91247       -3.09062
C          5.16949        1.44868       -4.42043
O          6.24474        1.49283       -5.00556
O          3.99194        1.89974       -4.93941
C          4.09261        2.43930       -6.25546
S          6.12483       -0.15902       -2.42874
C          6.20334       -1.95253        0.60195
C          6.26758       -2.67046        1.80610
C          7.49986       -3.35936        1.97412
C          8.34748       -3.09757        0.93002
S          7.69890       -2.16314       -0.27333
C          9.59206       -3.70597        1.19234
C          9.54411       -4.34922        2.41282
C          8.20513       -4.18924        2.97564
C          7.67404       -4.67701        4.11755
C          6.17251       -4.49569        4.26896
N          4.92686       -4.34526        4.39456
C          8.48638       -5.27182        5.25628
N          9.16028       -5.76527        6.20095
C         10.75516       -5.02597        2.68386
C         11.66861       -4.86602        1.63347
S         11.02553       -3.84465        0.37092
C         12.97218       -5.42221        1.44402
C         13.05706       -6.61940        0.83098
C         14.32698       -7.21702        0.52252
C         15.60280       -6.57167        0.86782
C         15.70883       -5.39367        1.48118
S         14.33071       -4.44634        1.97080
C         16.62344       -7.44634        0.44292
C         16.06238       -8.56278       -0.12841
C         17.01221       -9.49450       -0.57882
C         18.29239       -9.03051       -0.30444
S         18.29305       -7.47775        0.47461
C         14.62458       -8.40486       -0.07860
C         13.70851       -9.41103       -0.56671
C         12.82355       -9.21279       -1.55600
C         11.97112      -10.22639       -2.20563
C         12.32678      -11.50673       -2.47462
C         11.32240      -12.33677       -3.15604
C         11.40469      -13.60681       -3.62920
C         12.58865      -14.39297       -3.58028
N         13.54239      -15.05292       -3.56608
C         10.28714      -14.26117       -4.23815
N          9.39033      -14.81137       -4.72318
S          9.82891      -11.42618       -3.32931
C         10.58376       -9.77016       -2.73342
C         10.64135       -8.90282       -4.02761
C          9.44736       -8.54112       -4.69157
C          9.46824       -7.85644       -5.91204
C         10.67955       -7.48954       -6.48811
C         11.86971       -7.81107       -5.84790
C         11.85169       -8.51950       -4.64208
C          9.72971       -9.18941       -1.57477
C          9.07050      -10.01770       -0.63801
C          8.35969       -9.48843        0.44364
C          8.30516       -8.11491        0.63328
C          8.95342       -7.27460       -0.26525
C          9.66376       -7.80112       -1.35054
C         13.59713      -12.04006       -2.09980
N         14.62590      -12.45754       -1.76420
H          2.42654        3.25562        0.16695
H          2.97244        5.52507        0.85504
H          2.39763        6.34000        3.12088
H          1.20927        4.84784        4.70361
H          0.57757        2.58160        4.03577
H         -0.54036       -1.09086        1.84727
H         -0.53448       -2.76578        3.61174
H          1.07585       -2.61950        5.48829
H          2.71110       -0.76176        5.56544
H          2.72658        0.96388        3.82963
H          3.04512        1.84122       -2.56554
H          3.07892        2.63055       -6.61757
H          4.57613        1.73541       -6.94071
H          4.63705        3.38690       -6.22158
H          5.45308       -2.64841        2.51817
H         10.97404       -5.63170        3.55583
H         12.16259       -7.15733        0.53153
H         16.68613       -4.97951        1.70955
H         16.80751      -10.44227       -1.06202
H         19.23482       -9.51828       -0.51643
H         13.85961      -10.38460       -0.10965
H         12.72592       -8.20143       -1.95434
H          8.47817       -8.82421       -4.28092
H          8.53606       -7.62234       -6.42126
H         10.69753       -6.96236       -7.43883
H         12.81976       -7.52654       -6.29515
H         12.81937       -8.77232       -4.21902
H          9.09219      -11.10167       -0.72349
H          7.85084      -10.15565        1.13598
H          7.75697       -7.70379        1.47598
H          8.90564       -6.19989       -0.12644
H         10.16925       -7.10165       -2.01469
