94

C        -11.42813        8.17163       -2.26576
C        -10.76441        9.06006       -3.10355
C         -9.37721        9.03672       -2.84704
C         -9.06218        8.14720       -1.84159
S        -10.35847        7.33370       -1.19177
C         -7.66908        8.17824       -1.62653
C         -7.10303        9.08483       -2.49034
C         -8.15021        9.67923       -3.32295
C         -8.01582       10.59745       -4.29741
C         -6.75135       11.13491       -4.65592
N         -5.72014       11.57840       -4.95090
C         -9.13758       11.07962       -5.02316
N        -10.05656       11.47399       -5.61420
C         -5.70680        9.16757       -2.31099
C         -5.25022        8.31598       -1.29167
S         -6.60168        7.40617       -0.62379
C         -3.90151        8.10975       -0.81092
C         -3.69180        7.79191        0.48428
C         -2.37868        7.54169        1.01271
C         -1.17144        7.58704        0.18215
C         -1.16463        7.90642       -1.11015
S         -2.60510        8.31307       -1.99681
C         -0.09613        7.22722        1.01933
C         -0.56514        6.97237        2.28588
C          0.44178        6.60064        3.18931
C          1.66851        6.57743        2.53999
S          1.55359        7.02239        0.86425
C         -1.99421        7.17533        2.26978
C         -2.87618        6.99526        3.39667
C         -2.96259        5.85158        4.09220
C         -3.87052        5.72169        5.17158
N         -3.53174        4.83614        6.17187
C         -4.51803        4.86644        7.11792
C         -4.88884        4.30985        8.36469
C         -6.10540        4.89874        8.67782
N         -6.45564        5.77149        7.66809
C         -5.46985        5.74282        6.71983
C         -5.09361        6.30311        5.47513
C         -6.99019        4.78957        9.78004
C         -7.03593        3.67592       10.53024
C         -7.90170        3.52042       11.69019
C         -7.78988        4.36943       12.73078
C         -8.61482        4.25440       13.90409
C         -9.62198        3.19611       14.05048
C         -9.86630        2.26025       13.13446
S         -9.01009        2.15757       11.62108
C        -10.23083        3.39303       15.30677
C         -9.66509        4.48045       15.92715
C        -10.25605        4.78110       17.16560
C        -11.24449        3.85204       17.45517
S        -11.44343        2.67043       16.19931
C         -8.64077        5.00124       15.04819
C         -7.81052        6.15352       15.31305
C         -7.42434        6.55024       16.53580
C         -6.60321        7.69535       16.73706
C         -6.05161        8.58830       15.81520
C         -5.28596        9.58174       16.45089
C         -5.28351        9.42406       17.81709
S         -6.16236        8.13182       18.37119
C         -4.49943       10.44589       18.38957
C         -4.00714       11.24754       17.38065
C         -4.48015       10.74442       16.09087
C         -4.23356       11.23445       14.86095
C         -3.42326       12.38418       14.66547
N         -2.76282       13.32364       14.50804
C         -4.77357       10.62795       13.69056
N         -5.21858       10.13153       12.74219
C         -3.20949       12.29211       17.88920
C         -3.14197       12.21960       19.27504
S         -4.04485       10.89179       19.92498
H        -12.48958        7.96696       -2.22319
H        -11.28625        9.66544       -3.83444
H         -5.03350        9.80785       -2.86890
H         -4.51201        7.68540        1.18702
H         -0.23334        7.92326       -1.66717
H          0.30536        6.35846        4.23514
H          2.63410        6.32338        2.95510
H         -3.49375        7.85332        3.65237
H         -2.33775        5.00224        3.82331
H         -2.70144        4.26286        6.24738
H         -4.34114        3.59334        8.96030
H         -7.28685        6.34416        7.59401
H         -5.63661        7.02400        4.87998
H         -7.64467        5.62723       10.01205
H         -6.42700        2.80906       10.28118
H         -7.04945        5.16304       12.70578
H        -10.62776        1.50729       13.31021
H        -10.00423        5.60647       17.81854
H        -11.87118        3.80866       18.33551
H         -7.48438        6.69399       14.42925
H         -7.71679        5.97872       17.41269
H         -6.20726        8.49677       14.74851
H         -2.70133       13.06280       17.32295
H         -2.60838       12.87705       19.94783
