82

C          5.91011       -1.75099        1.22136
C          4.98652       -1.66169        0.19281
N          4.05619       -2.61921       -0.03835
C          4.08716       -3.67957        0.80401
C          5.02137       -3.76519        1.83369
N          5.94719       -2.80336        2.06869
C          3.14615       -4.76299        0.54775
C          3.44737       -5.72939       -0.35106
C          2.47433       -6.79902       -0.25401
C          2.48749       -7.97593       -1.03889
N          2.47996       -8.94157       -1.68289
C          1.59274       -6.51903        0.71984
C          1.90126       -5.18104        1.23292
C          1.16751       -4.49233        2.13300
C         -0.04268       -4.93332        2.86364
C         -0.32128       -3.96256        3.76084
C          0.60990       -2.86714        3.60984
C          1.47026       -3.14581        2.62006
C          0.56189       -1.67841        4.37404
N          0.51605       -0.71552        5.01880
C         -0.91154       -6.07520        2.71122
C         -1.18630       -6.92410        3.71656
C         -2.09839       -8.06347        3.67432
C         -2.65760       -8.48361        4.83034
C         -3.51637       -9.63978        4.89890
C         -3.80531      -10.45409        3.71215
C         -3.34954      -10.19981        2.48805
S         -2.33487       -8.84598        2.11344
C         -4.63555      -11.50703        4.13539
C         -4.88468      -11.38667        5.48058
C         -5.67272      -12.43774        5.98069
C         -6.01605      -13.30780        4.95551
S         -5.35343      -12.83638        3.42564
C         -4.19286      -10.20084        5.94929
C         -4.18314       -9.71647        7.31288
C         -5.17247       -9.89748        8.20205
C         -5.14131       -9.37845        9.54524
C         -5.04225       -8.05295        9.79292
C         -5.21074       -7.80452       11.20659
C         -5.12857       -6.53052       11.80032
N         -5.05806       -5.47322       12.28174
C         -5.44120       -8.96144       11.85182
C         -5.39041      -10.03453       10.85424
C         -5.46784      -11.35624       11.11942
C         -5.77927      -12.02015       12.40581
C         -5.66972      -13.34830       12.18361
C         -5.25950      -13.58964       10.81700
C         -5.15271      -12.42101       10.16969
C         -4.97959      -14.86898       10.28281
N         -4.74852      -15.91919        9.84919
C         -6.28596      -11.48849       13.64781
C         -5.73932      -11.74523       14.84765
C         -6.20113      -11.16507       16.11048
C         -7.52863      -10.83813       16.37796
N         -7.93698      -10.29510       17.55151
C         -6.95897      -10.09793       18.46173
C         -5.63974      -10.43529       18.21344
N         -5.23507      -10.98107       17.04196
H          6.65022       -0.97654        1.39009
H          4.97268       -0.81243       -0.48146
H          5.06353       -4.62317        2.49654
H          4.32602       -5.75906       -0.98250
H          0.79820       -7.17150        1.04107
H         -1.15513       -3.94796        4.44908
H          2.23056       -2.47713        2.25188
H         -1.38715       -6.17435        1.73700
H         -0.69616       -6.76099        4.67647
H         -2.47085       -7.94812        5.75645
H         -3.61018      -10.84932        1.65907
H         -5.98461      -12.58559        7.00441
H         -6.61575      -14.20515        5.02107
H         -3.30160       -9.15494        7.61576
H         -6.08310      -10.42790        7.93551
H         -4.92191       -7.27043        9.05721
H         -5.55501       -9.06112       12.91421
H         -5.89155      -14.13897       12.88682
H         -4.80185      -12.30067        9.15910
H         -7.13806      -10.81997       13.54981
H         -4.85128      -12.36744       14.93866
H         -8.31826      -11.00459       15.65406
H         -7.26608       -9.65919       19.40410
H         -4.86509      -10.27174       18.95412
