74

C        -10.62499       -1.25764       -0.97044
N        -10.26394       -2.55472       -1.11709
N         -8.89493       -2.97774       -1.20268
C         -7.83108       -2.12550       -1.14038
C         -8.17074       -0.76905       -0.99374
C         -9.56340       -0.34833       -0.90798
N         -9.59546        0.98379       -0.77513
O         -8.27684        1.39727       -0.78165
N         -7.40817        0.33351       -0.92194
C         -6.47570       -2.63016       -1.31422
C         -5.24239       -1.96717       -1.27519
C         -4.18912       -2.82349       -1.65802
C         -4.65511       -4.08211       -1.95879
S         -6.27250       -4.31713       -1.70609
C         -3.61811       -4.83063       -2.54245
C         -2.48975       -4.04817       -2.59886
C         -2.75841       -2.75713       -1.96119
C         -1.88954       -1.76334       -1.69285
C         -0.50827       -1.87259       -2.01266
N          0.62059       -1.96923       -2.27325
C         -2.30781       -0.55912       -1.05091
N         -2.65165        0.41667       -0.53341
C         -1.47245       -4.67733       -3.34004
C         -1.89391       -5.90825       -3.85394
S         -3.49745       -6.30615       -3.28939
C         -1.23976       -6.83561       -4.71735
C         -0.44202       -6.48695       -5.73926
C         -0.11517       -5.16798       -6.22762
C          0.61547       -5.16231       -7.34753
C          0.91846       -6.48011       -7.85415
S          0.34138       -7.71038       -6.72459
C          1.41972       -6.74482       -9.07234
C          1.62637       -5.79734      -10.15409
C          1.50592       -6.37106      -11.36488
C          1.21918       -7.79365      -11.27229
S          1.67888       -8.35301       -9.68725
C          0.56890       -8.49022      -12.21882
C          0.05037       -9.82262      -12.08910
C          0.01982      -10.72861      -11.02073
C         -0.65584      -11.91623      -11.33271
C         -1.16593      -11.87400      -12.60429
S         -0.79919      -10.50618      -13.46668
C         -1.90851      -13.04812      -12.82283
C         -1.85754      -13.83604      -11.69323
C         -1.02311      -13.17362      -10.68557
C         -0.64002      -13.62623       -9.47227
C          0.21782      -12.87112       -8.60923
N          0.91477      -12.28009       -7.89596
C         -1.04279      -14.90373       -9.00357
N         -1.36779      -15.95704       -8.62960
C         -2.63009      -15.00878      -11.85313
C         -3.21866      -15.05560      -13.12124
S         -2.81961      -13.64860      -14.06548
C         -4.07924      -16.05613      -13.72787
N         -4.05580      -16.24074      -15.07881
N         -4.87475      -17.19880      -15.76536
C         -5.75256      -18.00957      -15.12651
C         -5.81090      -17.84636      -13.73731
C         -4.98105      -16.87707      -13.03114
N         -5.27916      -16.95794      -11.72466
O         -6.24678      -17.93946      -11.61141
N         -6.57265      -18.48464      -12.83950
H        -11.67370       -1.01263       -0.91716
H         -5.14472       -0.90938       -1.06113
H         -0.50007       -4.25690       -3.56042
H         -1.44403       -7.89261       -4.54673
H         -0.44832       -4.25144       -5.77019
H          0.92726       -4.25525       -7.84280
H          1.76478       -4.73741      -10.00223
H          1.53473       -5.82977      -12.30021
H          0.32130       -7.96576      -13.14135
H          0.43910      -10.53404      -10.04755
H         -2.76343      -15.79009      -11.11343
H         -6.33433      -18.70619      -15.70889
