100

C         -0.67790        1.50943       -2.24185
C         -1.39031        2.23446       -3.19590
F         -0.80565        3.28318       -3.79111
C         -2.69236        1.88585       -3.52675
F         -3.36737        2.58483       -4.44945
C         -3.31515        0.81840       -2.89607
C         -2.63008        0.09661       -1.91094
C         -1.27773        0.42555       -1.58211
C         -0.57700       -0.31790       -0.59909
C         -1.23197       -1.33292        0.08315
C         -2.57292       -1.58849       -0.24539
C         -3.27935       -0.92970       -1.23222
C         -3.11220       -2.65044        0.60465
O         -4.28360       -2.84707        0.84110
C         -1.91489       -3.31253        1.19438
C         -0.86236       -2.27509        1.18379
C          0.07250       -2.07644        2.14129
C          0.08077       -2.85878        3.33423
N          0.04798       -3.47996        4.31325
C          1.00879       -1.00780        2.08616
N          1.77762       -0.14156        2.01700
C         -1.80057       -4.63490        1.41495
C         -2.81499       -5.58932        1.07785
C         -3.74416       -5.59729        0.02887
C         -4.48403       -6.79098       -0.01318
C         -4.04249       -7.68304        0.93283
S         -2.93529       -7.06542        2.00674
C         -4.65527       -8.92987        0.69157
C         -5.51560       -8.80847       -0.37839
C         -5.52174       -7.41722       -0.82790
C         -6.35770       -6.82287       -1.70572
C         -7.38223       -7.55178       -2.36020
N         -8.22682       -8.16046       -2.88491
C         -6.29508       -5.42249       -1.95984
N         -6.23915       -4.28389       -2.17450
C         -6.09184      -10.04970       -0.72608
C         -5.61303      -11.07273        0.09627
S         -4.50037      -10.46810        1.29044
C         -5.92498      -12.48394        0.03334
C         -5.92989      -13.39960        1.08741
C         -6.28911      -14.68824        0.64262
C         -6.52648      -14.70826       -0.71330
S         -6.33985      -13.24501       -1.47510
C         -6.87696      -16.02021       -1.09418
C         -6.84725      -16.83106        0.01683
C         -6.50250      -16.02735        1.19027
C         -6.44587      -16.41536        2.47960
C         -6.72867      -17.75167        2.87015
N         -6.96341      -18.84264        3.19000
C         -6.12947      -15.50192        3.52276
N         -5.87404      -14.75468        4.37338
C         -7.15729      -18.16814       -0.31244
C         -7.43956      -18.31543       -1.67740
S         -7.34367      -16.77662       -2.49234
C         -7.84784      -19.53497       -2.36796
C         -7.64178      -19.96810       -3.67457
C         -8.33151      -21.20442       -3.94997
S         -8.36733      -22.04608       -5.51432
C         -6.92911      -21.36144       -6.36357
C         -7.00077      -19.84954       -6.41307
S         -6.57690      -19.12416       -4.81775
C         -9.00089      -21.72476       -2.84355
S         -8.69441      -20.73507       -1.47736
C         -9.68373      -22.98654       -2.72620
C        -10.74493      -23.29314       -1.95868
C        -11.27709      -24.65206       -1.66552
C        -11.40312      -25.69440       -2.51944
C        -12.03492      -26.92032       -2.15296
N        -12.54330      -27.91923       -1.84902
C        -10.97743      -25.62596       -3.87912
N        -10.62328      -25.57448       -4.98184
C        -11.83571      -24.57866       -0.28260
C        -11.97627      -23.23242        0.06019
C        -11.47572      -22.37208       -1.02280
O        -11.69437      -21.18461       -1.12874
C        -12.44978      -22.78878        1.28913
C        -12.77895      -23.76594        2.25584
C        -12.62532      -25.12171        1.92447
C        -12.15317      -25.55122        0.65827
S        -13.06760      -26.13982        3.24930
C        -13.43279      -24.81547        4.22883
C        -13.24700      -23.61038        3.60623
Br       -14.02691      -24.98295        5.99740
H          0.33783        1.81949       -2.01100
H         -4.33837        0.57310       -3.17019
H          0.45932       -0.06651       -0.38939
H         -4.30798       -1.21151       -1.44405
H         -0.85734       -5.05066        1.76549
H         -3.83960       -4.78610       -0.68141
H         -6.79709      -10.22542       -1.52982
H         -5.69763      -13.11734        2.10726
H         -7.19047      -18.99823        0.38252
H         -6.93920      -21.75680       -7.38468
H         -6.00637      -21.71934       -5.89250
H         -7.98006      -19.48792       -6.74612
H         -6.26399      -19.47956       -7.13431
H         -9.21153      -23.77916       -3.30078
H        -12.52397      -21.72635        1.50476
H        -12.02631      -26.61341        0.47970
H        -13.42363      -22.65233        4.08045
