98

C        -14.69393       -7.91658        2.12385
C        -15.79256       -7.91874        1.26771
F        -16.78787       -8.79023        1.48050
C        -15.84978       -7.04608        0.19081
F        -16.89524       -7.07306       -0.64663
C        -14.81400       -6.15029       -0.04611
C        -13.68198       -6.15434        0.77982
C        -13.61146       -7.05421        1.88343
C        -12.44977       -7.09910        2.68803
C        -11.34410       -6.31803        2.36396
C        -11.46317       -5.43422        1.27969
C        -12.60477       -5.31105        0.50342
C        -10.20842       -4.71020        1.04983
O         -9.98427       -3.91355        0.15940
C         -9.26901       -5.17477        2.11341
C         -9.94947       -6.21904        2.91729
C         -9.39785       -7.01139        3.87176
C         -8.04596       -6.89582        4.32476
N         -6.95357       -6.81718        4.70275
C        -10.10151       -8.08465        4.48285
N        -10.65797       -8.98219        4.97051
C         -8.04636       -4.63684        2.19859
N         -7.41505       -3.73267        1.36257
C         -6.18490       -3.15717        1.53314
S         -5.23403       -3.46492        2.95638
C         -3.97876       -2.46973        2.45471
N         -2.81577       -2.29467        3.28104
O         -1.93763       -1.54364        2.83686
O         -2.76434       -2.89279        4.36477
C         -4.21730       -1.90065        1.22859
C         -5.48941       -2.30049        0.67990
C         -5.86686       -1.85845       -0.63763
C         -7.09276       -1.61585       -1.13601
C         -7.28846       -1.16631       -2.48937
C         -8.30798       -0.36176       -3.02671
C         -9.46868        0.01896       -2.27998
N        -10.45378        0.24133       -1.70915
C         -8.08075       -0.11891       -4.39476
C         -7.09815       -0.88090       -4.91747
S         -6.23347       -1.73259       -3.78061
S         -6.98578       -0.81433       -6.59793
C         -8.20646        0.34838       -6.60267
C         -8.65971        0.68148       -5.37553
C         -9.49807        1.81568       -5.37506
C         -9.95455        2.56809       -4.24453
N        -10.29378        3.21313       -3.34363
C         -9.67935        2.26935       -6.68784
S         -8.92039        1.20264       -7.84402
C        -10.28983        3.46690       -7.17480
C         -9.58416        4.59079       -7.37810
C        -10.14531        5.84172       -7.83253
C         -9.27578        6.86361       -7.80410
C         -7.96268        6.50213       -7.29613
S         -7.86621        4.75680       -7.08817
C         -6.98022        7.34824       -6.93296
C         -7.02305        8.79634       -7.00376
C         -6.01227        9.39638       -6.36262
C         -5.09365        8.47240       -5.73405
S         -5.47572        6.82702       -6.16534
C         -4.07011        8.76168       -4.91682
C         -3.67549       10.09330       -4.53825
C         -4.47022       10.97913       -3.88924
C         -3.76940       12.23760       -3.90326
C         -4.16675       13.46288       -3.51757
C         -3.24085       14.54285       -3.79719
C         -3.36655       15.87236       -3.63178
C         -2.15506       16.55050       -4.12720
C         -1.26799       15.61670       -4.54121
C         -1.91458       14.33726       -4.39718
C         -1.50653       13.10761       -4.75513
C         -2.45996       12.04001       -4.53971
C         -2.40967       10.74815       -4.89339
C         -1.87214       17.96415       -4.15230
C         -2.80959       18.91070       -4.28503
H        -14.68484       -8.62124        2.95201
H        -14.88920       -5.48103       -0.89908
H        -12.44443       -7.78508        3.52879
H        -12.62617       -4.60369       -0.32191
H         -7.40201       -4.92505        3.01407
H         -7.96184       -3.52592        0.52215
H         -3.51856       -1.23044        0.73892
H         -5.00922       -1.66424       -1.28277
H         -7.97430       -1.70473       -0.50691
H        -11.36248        3.45250       -7.34447
H        -11.17784        5.94077       -8.14002
H         -9.54298        7.87236       -8.08559
H         -7.80771        9.34861       -7.50054
H         -5.90355       10.47138       -6.29637
H         -3.44525        7.96311       -4.52222
H         -5.47448       10.81977       -3.53117
H         -5.13431       13.66246       -3.07750
H         -4.21864       16.38961       -3.22023
H         -0.28580       15.77700       -4.95408
H         -0.55234       12.91036       -5.22405
H         -1.60520       10.25316       -5.41449
H         -0.82680       18.25872       -4.08926
H         -3.86272       18.66905       -4.38794
H         -2.53399       19.95943       -4.31930
