95

C          5.15780       -1.98212        8.24661
C          4.85984       -1.49182        7.04186
C          4.35576       -0.17229        6.77173
C          4.04898        0.02527        5.48106
C          4.26266       -1.14498        4.64160
S          5.02224       -2.42999        5.58831
C          3.86474       -1.29517        3.36331
C          3.17366       -0.30924        2.55127
C          2.62730       -0.81758        1.43638
C          2.83907       -2.24342        1.29245
S          3.99358       -2.81238        2.47126
C          2.17345       -3.01123        0.41641
C          2.26701       -4.43342        0.37692
S          1.29695       -5.37384        1.45194
C          1.81913       -6.89196        0.79706
C          2.73761       -6.65941       -0.20840
C          2.97893       -5.26277       -0.46299
N          3.79670       -4.80379       -1.45150
C          4.35650       -5.83343       -2.17117
C          5.26603       -5.39558       -3.29813
N          6.66139       -5.28995       -2.86314
C          4.15277       -7.20673       -1.89278
C          4.78714       -8.30761       -2.71394
N          3.93367       -8.70518       -3.84006
N          3.32030       -7.66264       -0.91599
C          1.25200       -8.08628        1.34251
C          1.59231       -9.32379        0.93560
C          1.00992      -10.49553        1.51108
S          0.81690      -11.88772        0.52341
C          0.07961      -12.81571        1.77647
C         -0.00842      -12.05929        2.93928
C          0.56555      -10.74792        2.79931
O          0.66973       -9.74954        3.72324
C          0.47885      -10.10944        5.08953
S         -1.11538      -10.87436        5.42115
S         -0.74578      -12.62634        4.44986
C         -0.33798      -14.14315        1.44441
C         -0.28149      -15.15101        2.32884
C         -0.70937      -16.52040        2.06840
N         -0.24789      -17.45094        2.91838
C         -0.63824      -18.71314        2.67905
C         -1.48048      -19.06381        1.65131
C         -1.91447      -18.03066        0.84762
N         -1.52659      -16.75449        1.03393
C         -2.82757      -18.29297       -0.27434
C         -3.37335      -17.31501       -1.01190
C         -4.25397      -17.56753       -2.13082
C         -5.14892      -16.70996       -2.64623
C         -6.00730      -16.85147       -3.84162
C         -6.46177      -18.00538       -4.39237
C         -7.38214      -18.03013       -5.47530
N         -8.12914      -18.05646       -6.36623
C         -6.12284      -19.29678       -3.89198
N         -5.84318      -20.34895       -3.48597
C         -6.45381      -15.47206       -4.20438
C         -6.13836      -14.61341       -3.15005
C         -5.37392      -15.31822       -2.11491
O         -5.02799      -14.82789       -1.06186
C         -6.46800      -13.26323       -3.11564
C         -7.14106      -12.72540       -4.23321
C         -7.41087      -13.56605       -5.32401
C         -7.06443      -14.94128       -5.33415
S         -8.19784      -12.70064       -6.59577
C         -8.21227      -11.27081       -5.69979
C         -7.62224      -11.39280       -4.47046
Br        -8.96089       -9.67468       -6.33150
H          5.03345       -1.39480        9.14872
H          5.52316       -2.99842        8.36337
H          4.22334        0.56961        7.54683
H          3.63535        0.95285        5.11253
H          3.07317        0.72851        2.83518
H          2.03754       -0.24119        0.73694
H          1.46056       -2.55923       -0.26676
H          4.93094       -4.41505       -3.65654
H          5.18771       -6.07177       -4.15480
H          6.68868       -4.63170       -2.08067
H          7.20001       -4.85212       -3.60848
H          4.93155       -9.18189       -2.06591
H          5.78292       -8.02992       -3.06881
H          3.02851       -8.98234       -3.45200
H          4.32073       -9.55246       -4.25306
H          0.49812       -7.96346        2.11466
H          2.31582       -9.48074        0.14353
H          0.51364       -9.17630        5.65996
H          1.31745      -10.72273        5.44123
H         -0.67820      -14.33826        0.42728
H          0.11419      -15.01978        3.32781
H         -0.23652      -19.45650        3.36049
H         -1.77611      -20.09213        1.49663
H         -3.07423      -19.33354       -0.46574
H         -3.13655      -16.27734       -0.78285
H         -4.09631      -18.54440       -2.57935
H         -6.20827      -12.65065       -2.25593
H         -7.28179      -15.52521       -6.22097
H         -7.53327      -10.58032       -3.75893
