89

C         -5.48350       -0.67852        3.34772
C         -6.10314       -1.43686        2.37041
C         -5.47259       -2.56318        1.72978
N         -6.19555       -3.24458        0.80920
C         -7.44499       -2.82273        0.48079
C         -8.01192       -1.73434        1.09534
N         -7.34649       -1.04137        2.05499
C         -9.32105       -1.25777        0.77411
N        -10.38787       -0.88384        0.49939
C         -8.11246       -3.57108       -0.54157
N         -8.67937       -4.15794       -1.36837
C         -4.13664       -2.95728        2.03864
C         -3.46889       -2.18526        3.04079
C         -4.17065       -1.03237        3.70281
N         -3.43128       -0.40399        4.62673
S         -1.96730       -1.17790        4.66546
N         -2.21467       -2.33437        3.50429
C         -3.40769       -4.07069        1.37424
C         -2.40683       -4.92608        1.86381
C         -1.93604       -5.81679        0.86733
C         -2.61665       -5.64214       -0.31256
S         -3.71723       -4.41021       -0.31330
C         -2.09928       -6.51902       -1.28367
C         -1.06161       -7.23412       -0.73571
C         -0.90978       -6.84917        0.67281
C         -0.01190       -7.30887        1.56537
C          0.95468       -8.29302        1.21171
N          1.73929       -9.09322        0.92135
C          0.02399       -6.82774        2.90263
N          0.04856       -6.43616        3.99501
C         -0.43191       -8.04443       -1.71024
C         -1.01653       -7.87375       -2.97107
S         -2.40833       -6.82971       -2.88082
C         -0.57482       -8.42662       -4.23865
C          0.71085       -8.71898       -4.65324
C          0.75333       -9.34132       -5.95924
N          1.90765       -9.75956       -6.55381
C          3.00434       -9.53992       -5.77184
C          4.28907      -10.03374       -6.32564
O          4.37428      -10.60743       -7.40410
C          5.51139       -9.82357       -5.52658
C          5.48197       -9.20293       -4.34724
C          4.22293       -8.70146       -3.76369
O          4.25397       -8.12320       -2.68470
C          2.96706       -8.92052       -4.52125
N          1.82547       -8.47849       -3.90278
C         -0.49686       -9.49007       -6.52515
S         -1.69887       -8.84214       -5.47972
C         -0.87033      -10.12151       -7.77371
C         -1.94918       -9.81121       -8.60848
C         -2.03247      -10.71290       -9.69318
C         -1.01703      -11.63821       -9.65271
S          0.01862      -11.49356       -8.37022
C         -1.19987      -12.56485      -10.69436
C         -2.35266      -12.25856      -11.37423
C         -2.90480      -11.01351      -10.83157
C         -3.93640      -10.28445      -11.29878
C         -4.67773      -10.68909      -12.44147
N         -5.28843      -11.01996      -13.37171
C         -4.30838       -9.05148      -10.69703
N         -4.60067       -8.04092      -10.20419
C         -2.66922      -13.26638      -12.31573
C         -1.71521      -14.29783      -12.31908
S         -0.38923      -13.88974      -11.25343
C         -1.68431      -15.58044      -13.07056
C         -1.06338      -16.77987      -12.60609
C         -1.03729      -17.98391      -13.39588
N         -0.41166      -19.09772      -12.97621
C          0.20835      -19.06551      -11.76735
C          0.17419      -17.94254      -10.98059
N         -0.47263      -16.81997      -11.38878
C          0.81886      -17.86149       -9.70376
N          1.34982      -17.81872       -8.67192
C          0.89491      -20.26139      -11.37802
N          1.45953      -21.21732      -11.04263
C         -1.64958      -18.08284      -14.63382
C         -2.30270      -16.93919      -15.12771
C         -2.32065      -15.65665      -14.34688
N         -2.97245      -14.68208      -15.00614
S         -3.52838      -15.32229      -16.42854
N         -2.95015      -16.86949      -16.29876
H         -5.98465        0.15989        3.81984
H         -2.03314       -4.86736        2.87948
H          0.43755       -8.67216       -1.54995
H          6.43472      -10.20101       -5.95320
H          6.38061       -9.04200       -3.76093
H         -2.63508       -8.99853       -8.40118
H         -3.56209      -13.28806      -12.92938
H         -1.62946      -19.00437      -15.20582
