121

C         -0.99788       10.35211        2.35193
C         -0.27166        9.91072        3.41061
C          1.15366        9.78453        3.38754
N          2.30621        9.67322        3.37442
C         -0.87335        9.57695        4.65894
N         -1.36800        9.29583        5.67430
C         -0.45108       10.84481        1.04736
C         -1.46118       11.54345        0.37969
C         -1.30447       12.13467       -0.86883
C         -0.05644       11.99260       -1.51388
C          0.96004       11.28153       -0.86285
C          0.78432       10.70032        0.42085
S          2.38997       11.21626       -1.83018
C          1.66779       12.09692       -3.09773
C          0.37333       12.45346       -2.80367
C         -2.72479       11.49390        1.13110
O         -3.75843       12.05065        0.82262
C         -2.46655       10.59310        2.30291
C         -3.47469       10.03762        2.99858
C         -4.92407       10.28775        2.81874
C         -5.64982       11.24856        3.52776
C         -7.10008       11.35307        3.47266
N         -7.70419       12.25380        4.28533
C         -6.93100       13.08322        5.04576
C         -5.55982       13.01577        5.02742
N         -4.91838       12.07487        4.30156
C         -4.71510       13.95336        5.71071
N         -4.03437       14.73584        6.23107
C         -7.63383       14.02990        5.85763
N         -8.18421       14.80154        6.52737
C         -7.89072       10.52809        2.62401
C         -7.15274        9.60103        1.80277
C         -5.65220        9.46500        1.93095
N         -5.13219        8.49497        1.15740
S         -6.38492        7.84949        0.29471
N         -7.63837        8.75044        0.87888
C         -9.39175       10.44026        2.69457
S        -10.04333        8.81571        2.77151
C        -11.60603        9.33204        3.13626
C        -11.67040       10.69582        3.25849
C        -10.44646       11.36382        2.82877
C        -10.48944       12.91020        2.78556
C        -11.10782       13.34596        4.14320
C        -12.48405       12.74821        4.48466
C        -12.85619       11.43736        3.78844
N        -11.24243       13.47610        1.63115
C        -11.38038       14.81917        1.27096
C        -11.98728       15.15760        0.03204
C        -12.09356       16.50024       -0.37290
C        -11.67975       17.53467        0.48730
C        -11.03818       17.23112        1.67115
C        -10.84562       15.88217        2.02110
C        -11.99954       18.82167       -0.09862
C        -12.53420       18.62727       -1.38384
C        -12.59377       17.12142       -1.69699
C        -11.64008       16.81377       -2.89090
C        -10.16914       17.18421       -2.69094
C        -14.03250       16.68708       -2.07892
C        -15.09935       16.92262       -1.01338
C        -12.91333       19.70747       -2.18219
C        -12.80321       21.01193       -1.67141
C        -12.29533       21.18756       -0.36826
C        -11.88326       20.09979        0.41642
C        -13.25587       22.13614       -2.51568
C        -13.25610       23.43516       -2.17209
C        -13.75693       24.47290       -3.04194
C        -15.00748       24.60701       -3.50563
C        -16.26133       23.85801       -3.31618
C        -16.71887       23.29818       -2.16704
C        -17.96152       22.60592       -2.07217
N        -18.96354       22.02327       -2.00585
C        -16.04650       23.46244       -0.91621
N        -15.55507       23.62823        0.12287
C        -17.06361       24.07395       -4.56074
C        -16.45731       25.09534       -5.30164
C        -15.20172       25.52629       -4.67016
O        -14.46289       26.40278       -5.06742
C        -16.96696       25.60687       -6.48870
C        -18.18746       25.07543       -6.95832
C        -18.79421       24.03947       -6.23512
C        -18.23690       23.50776       -5.04387
S        -20.26988       23.54136       -6.98005
C        -20.12095       24.69451       -8.22487
C        -18.96595       25.43064       -8.11041
H         -2.13011       12.65868       -1.34169
H          1.61044       10.14417        0.84904
H          2.22347       12.31201       -4.00079
H         -0.25269       13.01450       -3.48736
H         -3.29003        9.29221        3.76617
H        -12.39403        8.61202        3.31603
H         -9.46449       13.28545        2.71434
H        -11.18262       14.42905        4.25144
H        -10.41489       13.03062        4.93560
H        -12.51509       12.59413        5.57310
H        -13.27008       13.48518        4.28062
H        -13.56129       11.62971        2.97294
H        -13.38714       10.80510        4.51472
H        -12.00563       12.88568        1.31372
H        -12.35896       14.37360       -0.62200
H        -10.66326       18.01642        2.31949
H        -10.28190       15.69685        2.92744
H        -11.99265       17.34957       -3.78397
H        -11.68926       15.74583       -3.13646
H        -10.03878       18.24516       -2.45629
H         -9.60782       16.98649       -3.61036
H         -9.71292       16.59254       -1.89237
H        -14.03743       15.62045       -2.33588
H        -14.34773       17.21935       -2.98767
H        -14.88922       16.35455       -0.10318
H        -16.07481       16.59576       -1.38899
H        -15.18681       17.98130       -0.75170
H        -13.29363       19.53118       -3.18441
H        -12.21736       22.17785        0.07247
H        -11.50193       20.27162        1.41691
H        -13.62203       21.85411       -3.50196
H        -12.85737       23.78746       -1.22421
H        -12.98671       25.17203       -3.37537
H        -16.44624       26.39711       -7.02248
H        -18.75552       22.69570       -4.54827
H        -20.88497       24.77681       -8.98586
H        -18.69069       26.20811       -8.81320
