123

C        -11.44359       -2.68175        3.13759
C        -11.90161       -3.67880        4.00329
C        -12.64615       -4.75923        3.52094
C        -12.96391       -4.85633        2.16534
C        -12.55515       -3.84391        1.30545
C        -11.77497       -2.75005        1.78853
C        -11.42459       -1.85418        0.63307
C        -10.93737       -0.58568        0.67800
C        -10.64357        0.08481        1.89500
N        -10.39620        0.64404        2.88072
C        -10.74203        0.18393       -0.50125
N        -10.56872        0.79825       -1.46913
C        -11.81930       -2.61519       -0.58466
C        -12.82157       -3.61777       -0.14598
C        -13.94153       -3.99135       -0.80800
C        -14.39674       -3.26350       -1.94699
N        -14.81011       -2.62464       -2.82290
C        -14.82498       -5.00192       -0.33868
N        -15.52914       -5.85159        0.01966
C        -11.09245       -2.65543       -1.72396
C        -11.19947       -3.68299       -2.70321
S        -10.27024       -5.10814       -2.51444
C        -10.83934       -5.80234       -3.98021
C        -11.71513       -4.93777       -4.60915
C        -11.88943       -3.71230       -3.89738
C        -10.41569       -7.10862       -4.44024
C        -10.83172       -7.77902       -5.57730
C        -10.19790       -9.04875       -5.73421
C         -9.31766       -9.32671       -4.70856
S         -9.26883       -8.04956       -3.58010
C         -8.49683      -10.49364       -4.52962
S         -7.91796      -11.38051       -5.86795
C         -7.07855      -12.50178       -4.87150
C         -7.24342      -12.18965       -3.53754
C         -8.05378      -11.03955       -3.34136
C         -6.35965      -13.54618       -5.50434
C         -5.67011      -14.46906       -4.81370
C         -4.92865      -15.51235       -5.44709
S         -4.84471      -15.62433       -7.15725
C         -3.85902      -17.00301       -7.13216
C         -3.53834      -17.36908       -5.83724
C         -4.18815      -16.53287       -4.85887
C         -4.00138      -16.77411       -3.38254
C         -3.42551      -18.16591       -3.07856
C         -2.21507      -18.46858       -3.97307
N         -1.59474      -19.74506       -3.59883
C         -2.64995      -18.51921       -5.44344
C         -3.50697      -17.55313       -8.38836
C         -3.31515      -18.86763       -8.52871
C         -2.92483      -19.44034       -9.75765
S         -2.62847      -21.11895       -9.79033
C         -2.17445      -21.10302      -11.43998
C         -2.28114      -19.83059      -11.96314
C         -2.71106      -18.87840      -10.99901
C         -1.74838      -22.29717      -12.12373
C         -1.34794      -22.41948      -13.43886
C         -0.99287      -23.76091      -13.77981
C         -1.12867      -24.63475      -12.71710
S         -1.67626      -23.80595      -11.33068
C         -0.86675      -26.05440      -12.69125
S         -1.09433      -27.00608      -11.27875
C         -0.59690      -28.45020      -12.04542
C         -0.25767      -28.20274      -13.36187
C         -0.41654      -26.83802      -13.73405
C         -0.58542      -29.65057      -11.28467
C         -0.19730      -30.81031      -11.82951
C         -0.16208      -32.05372      -11.10122
C          0.57319      -32.33509      -10.00803
C          0.30297      -33.49280       -9.11683
C          0.01052      -34.75841       -9.49548
C         -0.07629      -35.14317      -10.86700
N         -0.16483      -35.44549      -11.98455
C         -0.17682      -35.81260       -8.56496
N         -0.33967      -36.67770       -7.80661
C          0.54152      -32.97173       -7.72920
C          1.19164      -31.70656       -7.81571
C          1.44347      -30.95886       -6.67230
C          1.09928      -31.49236       -5.42870
C          0.48024      -32.74211       -5.33737
C          0.17857      -33.47930       -6.48539
C          1.45112      -31.40479       -9.25764
C          2.44213      -30.62447       -9.75315
C          3.27889      -29.82359       -8.92616
N          3.95800      -29.16577       -8.25192
C          2.80396      -30.64804      -11.13300
N          3.13326      -30.68526      -12.24629
H        -10.83717       -1.88893        3.55977
H        -11.66714       -3.61943        5.06485
H        -12.98154       -5.53225        4.21000
H        -13.52239       -5.72329        1.82925
H        -10.24281       -1.99440       -1.87479
H        -12.20220       -5.15197       -5.55300
H        -12.51451       -2.89917       -4.24905
H        -11.55732       -7.39050       -6.28100
H        -10.39047       -9.72297       -6.56109
H         -6.80454      -12.75659       -2.72711
H         -8.29800      -10.64239       -2.36423
H         -6.39114      -13.55913       -6.59110
H         -5.64836      -14.44408       -3.72982
H         -4.95666      -16.66790       -2.85627
H         -3.31931      -16.01091       -2.98807
H         -4.20333      -18.92568       -3.23983
H         -3.14419      -18.21752       -2.02049
H         -1.46551      -17.67729       -3.84982
H         -2.27618      -20.50045       -3.67735
H         -1.31299      -19.71800       -2.62046
H         -3.21185      -19.44706       -5.61071
H         -1.75988      -18.54245       -6.08496
H         -3.43417      -16.87697       -9.23477
H         -3.44516      -19.54281       -7.69097
H         -2.05438      -19.57533      -12.98901
H         -2.84311      -17.82580      -11.21298
H         -1.30773      -21.59112      -14.13502
H         -0.65581      -24.05331      -14.76602
H          0.09379      -28.96448      -14.04565
H         -0.20238      -26.46302      -14.72595
H         -0.90171      -29.60860      -10.24277
H          0.08152      -30.89049      -12.87676
H         -0.87965      -32.76248      -11.50621
H          1.88290      -29.96731       -6.70099
H          1.30852      -30.92559       -4.52385
H          0.21381      -33.13773       -4.35805
H         -0.34823      -34.41947       -6.36068
