113

C         -7.76376        2.77263        2.81579
C         -8.95659        2.94009        3.52694
C         -9.55571        1.86139        4.18230
C         -8.95120        0.60471        4.17559
C         -7.72894        0.44849        3.53104
C         -7.14622        1.52536        2.80495
C         -5.92032        1.02093        2.08884
C         -4.95320        1.77001        1.50021
C         -4.98355        3.20707        1.44683
N         -4.99584        4.36166        1.39521
C         -3.78746        1.17502        0.93060
N         -2.85087        0.68324        0.45527
C         -5.95518       -0.47642        2.26646
C         -6.81466       -0.73019        3.44649
C         -6.62096       -1.62816        4.44237
C         -5.45066       -2.43498        4.54101
N         -4.49288       -3.06851        4.71365
C         -7.47810       -1.71290        5.57397
N         -8.17966       -1.78506        6.49654
C         -5.59035       -1.37473        1.32624
C         -5.89883       -2.77348        1.31580
S         -4.62781       -3.90863        1.56543
C         -5.61861       -5.26763        1.25853
C         -6.86428       -4.85632        0.79855
C         -7.07259       -3.43193        0.96789
C         -8.41755       -2.79987        0.66142
C         -9.55329       -3.85308        0.55680
O         -9.85954       -4.30972        1.88958
C        -10.89172       -5.28561        1.96057
C         -9.12041       -4.98639       -0.39759
O         -8.83455       -4.41371       -1.68888
C         -8.46076       -5.35483       -2.68874
C         -7.94247       -5.75062        0.22697
C         -5.10816       -6.61551        1.35794
S         -5.46173       -7.81622        0.17403
C         -4.55721       -9.08077        0.91496
C         -4.02044       -8.54134        2.03940
C         -4.30362       -7.20046        2.27860
N         -3.73802       -6.63067        3.38980
C         -2.99853       -7.69754        3.88624
N         -2.18584       -7.50932        5.05081
O         -2.19410       -6.38310        5.56098
O         -1.53787       -8.48631        5.44305
C         -3.14527       -8.86704        3.11276
C         -4.41626      -10.37541        0.28573
S         -4.29344      -11.82551        1.19968
C         -3.92628      -12.79857       -0.18840
C         -3.76291      -11.96054       -1.27766
C         -4.36178      -10.67310       -1.06909
C         -4.65961       -9.79509       -2.26093
C         -4.77007      -10.63985       -3.55056
O         -5.93108      -11.48540       -3.42974
C         -6.24577      -12.19733       -4.61346
C         -3.45873      -11.42973       -3.77754
O         -2.45855      -10.48561       -4.20575
C         -1.22537      -11.08388       -4.58846
C         -3.00596      -12.23187       -2.53937
C         -3.66356      -14.19418       -0.00587
C         -3.97538      -15.18976       -0.86284
C         -3.45109      -16.59272       -0.79267
C         -3.33218      -17.35718        0.31906
C         -3.69350      -16.87261        1.61814
N         -3.98868      -16.48353        2.66896
C         -2.90170      -18.71217        0.27576
N         -2.55456      -19.81971        0.23528
C         -3.24869      -17.02101       -2.22865
C         -3.81560      -16.02692       -3.06553
C         -3.63344      -16.02435       -4.44434
C         -2.99480      -17.11720       -5.02189
C         -2.54320      -18.17301       -4.21992
C         -2.64317      -18.11921       -2.82108
C         -4.61042      -15.12555       -2.19275
C         -5.90853      -14.84427       -2.44889
C         -6.51829      -15.21409       -3.68804
N         -6.96705      -15.48766       -4.72384
C         -6.78423      -14.37693       -1.43145
N         -7.53800      -14.07994       -0.60139
H         -7.37276        3.63607        2.29046
H         -9.43461        3.91797        3.55636
H        -10.49964        2.00328        4.70530
H         -9.45784       -0.21524        4.67446
H         -5.09035       -1.04764        0.41822
H         -8.33598       -2.24512       -0.28135
H         -8.66741       -2.08639        1.45400
H        -10.44195       -3.34799        0.15783
H        -11.14517       -5.43670        3.01332
H        -10.54989       -6.24792        1.56792
H        -11.78347       -4.95495        1.42234
H         -9.95014       -5.68930       -0.54061
H         -8.55958       -4.87527       -3.66669
H         -9.10252       -6.24088       -2.66785
H         -7.41169       -5.64012       -2.56785
H         -7.52087       -6.38640       -0.54945
H         -8.30137       -6.40697        1.02781
H         -3.81477       -5.67481        3.72783
H         -2.65357       -9.81303        3.30403
H         -3.88400       -9.02893       -2.36615
H         -5.62956       -9.30677       -2.11893
H         -4.94552       -9.94551       -4.38292
H         -6.24338      -11.55764       -5.49654
H         -7.24197      -12.63015       -4.48987
H         -5.52755      -13.00833       -4.74717
H         -3.59956      -12.13362       -4.60486
H         -0.63308      -10.33666       -5.12048
H         -1.38491      -11.94692       -5.24168
H         -0.65427      -11.38296       -3.70621
H         -1.97439      -11.97088       -2.27923
H         -2.97305      -13.28856       -2.79072
H         -3.10972      -14.41964        0.90269
H         -3.99575      -15.21897       -5.07683
H         -2.87232      -17.16743       -6.10267
H         -2.09720      -19.04679       -4.69290
H         -2.24607      -18.95299       -2.25442
