121

C         -0.38021       -3.16035       -5.40377
C          0.51604       -4.16853       -5.51769
C          0.62775       -4.95699       -6.69859
N          0.70576       -5.58808       -7.67048
C          1.54831       -4.38753       -4.55867
N          2.45523       -4.55542       -3.85192
C         -1.13913       -2.56899       -6.53952
C         -1.27440       -1.19144       -6.28745
C         -1.87371       -0.31271       -7.17338
C         -2.40151       -0.84568       -8.35012
C         -2.33067       -2.23321       -8.60025
C         -1.69385       -3.09992       -7.69378
Cl        -3.03750       -2.94533      -10.00883
Cl        -3.16306        0.24905       -9.44832
C         -0.80352       -0.87100       -4.92460
O         -0.76636        0.22638       -4.41244
C         -0.50262       -2.20143       -4.30172
C         -0.74134       -2.33932       -2.98710
C         -0.97783       -3.60688       -2.29094
C         -2.28760       -4.09960       -2.17924
C         -2.50027       -5.31613       -1.53808
C         -1.41504       -6.03174       -0.98994
C         -0.12438       -5.53725       -1.07322
C          0.08440       -4.31133       -1.70901
C         -1.90337       -7.23146       -0.35275
C         -3.30291       -7.28688       -0.47269
C         -3.81809       -6.06925       -1.27364
C         -4.83515       -5.23965       -0.44885
C         -4.31858       -4.68500        0.87961
C         -4.43254       -6.60038       -2.60284
C         -5.02188       -5.56433       -3.55635
C         -4.02621       -8.33959        0.08741
C         -3.34994       -9.36449        0.78252
C         -1.94369       -9.27821        0.88873
C         -1.21724       -8.22469        0.31978
C         -4.08993      -10.48008        1.39300
S         -5.69818      -10.29503        2.02195
C         -5.85694      -11.95899        2.52303
C         -4.69395      -12.56723        2.18608
C         -3.72957      -11.77234        1.58902
N         -2.55304      -12.38492        1.25135
C         -2.78980      -13.68492        1.67011
N         -1.77181      -14.66981        1.47181
O         -0.71876      -14.27677        0.95295
O         -2.03017      -15.82350        1.82897
C         -4.06403      -13.84216        2.24299
C         -7.08583      -12.45030        3.16622
C         -7.87113      -11.60385        3.96872
C         -9.00377      -12.11208        4.59395
C         -9.39606      -13.45452        4.42054
C         -8.64223      -14.30272        3.63026
C         -7.48826      -13.79753        3.01137
C        -10.59922      -13.70055        5.18859
C        -10.96037      -12.52030        5.87172
C         -9.97258      -11.39680        5.54049
C         -9.26825      -10.89297        6.83132
C         -8.46879      -11.94007        7.60883
C        -10.68701      -10.20658        4.84079
C        -11.38331      -10.52626        3.51673
C        -12.05929      -12.47846        6.72287
C        -12.82158      -13.63946        6.88040
C        -12.48000      -14.80981        6.17313
C        -11.36187      -14.84654        5.32793
C        -14.00191      -13.62337        7.75387
C        -14.01927      -13.91623        9.06454
C        -15.17660      -14.04412        9.97911
C        -16.32815      -13.32192        9.94344
C        -17.33357      -13.42645       10.94130
N        -18.14883      -13.51489       11.75955
C        -16.58062      -12.34234        8.94069
N        -16.78796      -11.54428        8.12079
C        -14.75271      -14.97622       11.06685
C        -13.36396      -15.15612       10.97015
C        -12.82153      -14.40350        9.82823
O        -11.64400      -14.21535        9.61533
C        -12.63717      -15.98300       11.81357
C        -13.33343      -16.67053       12.80676
C        -14.72764      -16.51123       12.93196
C        -15.44094      -15.67007       12.05585
Cl       -15.63553      -17.33749       14.15121
Cl       -12.42896      -17.72248       13.83563
H         -1.95048        0.74484       -6.93810
H         -1.66882       -4.16489       -7.90749
H         -0.95120       -1.45732       -2.38052
H         -3.12333       -3.52712       -2.56927
H          0.71694       -6.07328       -0.64641
H          1.09402       -3.90800       -1.74372
H         -5.72073       -5.85281       -0.23425
H         -5.18657       -4.38627       -1.04034
H         -4.06281       -5.48371        1.58208
H         -5.09375       -4.06980        1.34939
H         -3.43929       -4.04937        0.74056
H         -5.23514       -7.31407       -2.37306
H         -3.67379       -7.17117       -3.15608
H         -5.90514       -5.08058       -3.13017
H         -5.33109       -6.05388       -4.48606
H         -4.30301       -4.79481       -3.83902
H         -5.10753       -8.35365       -0.01892
H         -1.37835      -10.01693        1.44831
H         -0.13764       -8.19103        0.42552
H         -1.72944      -12.00183        0.80572
H         -4.46594      -14.76782        2.63517
H         -7.60104      -10.56442        4.12586
H         -8.92303      -15.34198        3.49479
H         -6.90617      -14.47835        2.39432
H        -10.01987      -10.47431        7.51382
H         -8.58785      -10.06816        6.58389
H         -9.08481      -12.79659        7.89829
H         -8.07395      -11.49573        8.52862
H         -7.61539      -12.30614        7.03024
H         -9.96342       -9.40335        4.64818
H        -11.43794       -9.78468        5.52136
H        -10.65778      -10.73805        2.72502
H        -11.97643       -9.66438        3.19244
H        -12.06320      -11.37861        3.60135
H        -12.30926      -11.56714        7.25620
H        -13.08505      -15.70728        6.27565
H        -11.10510      -15.75846        4.79963
H        -14.90850      -13.39019        7.20309
H        -11.56522      -16.10055       11.68131
H        -16.51832      -15.60282       12.17233
