83

C          2.07928       -2.77352       -1.86457
C          1.86597       -3.61121       -2.90798
C          1.60051       -3.13564       -4.22326
N          1.40708       -2.72609       -5.29185
C          2.07902       -5.01935       -2.79314
N          2.33847       -6.14873       -2.71221
C          2.28246       -1.30445       -1.94367
C          3.13785       -0.93042       -0.88951
C          3.57422        0.36715       -0.68845
C          3.09917        1.34579       -1.56231
C          2.19578        1.00643       -2.59327
C          1.78672       -0.32424       -2.78799
Cl         1.52716        2.19951       -3.65137
Cl         3.63412        2.96809       -1.30480
C          3.37947       -2.07826        0.00538
O          4.08705       -2.10170        0.98925
C          2.48194       -3.15765       -0.50779
C          2.00607       -4.04043        0.38077
C          0.84823       -4.81194        0.13854
N          0.73121       -6.02171        0.79735
C         -0.48121       -6.50449        0.45857
N         -1.34843       -7.52347        0.61748
C         -2.42486       -7.23439       -0.20393
N         -2.24910       -6.08101       -0.83518
C         -1.04121       -5.63137       -0.40582
N         -0.21463       -4.57263       -0.62023
C         -3.45363       -8.19900       -0.25908
C         -4.21843       -8.33276       -1.35408
C         -5.20385       -9.34846       -1.43196
S         -6.06284      -10.00371       -0.06798
C         -6.96275      -11.12894       -1.01596
C         -6.60449      -10.95648       -2.30725
C         -5.66031       -9.97471       -2.54304
N         -5.29752       -9.76319       -3.84640
C         -6.09524      -10.69630       -4.49869
N         -6.03784      -10.79761       -5.92463
O         -5.26208      -10.02931       -6.50534
O         -6.76187      -11.65094       -6.45087
C         -6.89750      -11.43905       -3.61063
C         -7.89198      -12.03176       -0.42986
N         -8.16278      -13.27145       -0.96961
C         -9.10048      -13.81296       -0.17094
N         -9.87666      -14.88973        0.04286
C        -10.64620      -14.58736        1.15540
N        -10.30750      -13.40809        1.65796
C         -9.35990      -12.92621        0.81381
N         -8.59351      -11.81652        0.67400
C        -11.60201      -15.52260        1.61384
C        -12.22203      -16.36803        0.77783
C        -13.22620      -17.31368        1.19828
C        -13.85737      -18.17794        0.38647
C        -14.97851      -19.09681        0.67620
C        -15.30023      -19.63675        1.87939
C        -16.35202      -20.58567        2.04123
N        -17.20641      -21.35137        2.16554
C        -14.57934      -19.35090        3.07521
N        -13.98964      -19.11408        4.04623
C        -15.58820      -19.44430       -0.64574
C        -14.74161      -18.98391       -1.66536
C        -13.61784      -18.23359       -1.10111
O        -12.71416      -17.75644       -1.75683
C        -14.98820      -19.16661       -3.01903
C        -16.16173      -19.82530       -3.37829
C        -17.05533      -20.26547       -2.38311
C        -16.77169      -20.06942       -1.01702
Cl       -18.54215      -21.05706       -2.77582
Cl       -16.47092      -20.04909       -5.06234
H          4.23511        0.60826        0.13898
H          1.07153       -0.55272       -3.57312
H          2.43369       -4.07273        1.38166
H          1.43341       -6.45480        1.38189
H         -1.23254       -8.36088        1.17195
H         -3.57601       -8.85788        0.59592
H         -4.05490       -7.68295       -2.21121
H         -4.63957       -9.09336       -4.22748
H         -7.60808      -12.20319       -3.90039
H         -7.72811      -13.67074       -1.78906
H         -9.90943      -15.74818       -0.48938
H        -11.84047      -15.49846        2.67245
H        -12.00491      -16.33848       -0.28267
H        -13.47455      -17.22874        2.25164
H        -14.29369      -18.79130       -3.76601
H        -17.50538      -20.40235       -0.29017
