85

C        -18.32778       -5.58461        6.13564
C        -18.58604       -6.39769        5.07975
C        -18.94163       -7.77011        5.21753
N        -19.24188       -8.88958        5.31639
C        -18.57123       -5.94958        3.72478
N        -18.56434       -5.60499        2.61910
C        -18.39463       -5.97198        7.58329
C        -18.25943       -4.81957        8.36087
C        -18.26218       -4.80624        9.75241
C        -18.42965       -6.03618       10.42252
C        -18.57690       -7.20128        9.65654
C        -18.54698       -7.19198        8.23747
S        -18.79300       -8.58611       10.66870
C        -18.68126       -7.65676       12.07292
C        -18.47446       -6.32583       11.82881
Br       -18.82731       -8.37876       13.79503
C        -18.09709       -3.62995        7.52006
O        -18.04320       -2.49089        7.93459
C        -18.03018       -4.12701        6.10396
C        -17.64798       -3.32070        5.10113
C        -17.35164       -1.89888        5.19016
C        -16.17529       -1.34518        4.86058
C        -15.90944        0.07180        4.77672
C        -14.73151        0.36162        4.19864
C        -13.97181       -0.81389        3.80535
S        -14.76381       -2.26661        4.42389
C        -12.89455       -0.86513        2.99832
C        -12.26430        0.23480        2.29130
C        -11.45432       -0.16351        1.29519
C        -11.37593       -1.60281        1.15914
S        -12.13251       -2.38180        2.52605
C        -10.85777       -2.25780        0.10631
C        -10.91189       -3.66795        0.00606
S        -12.20239       -4.55544       -0.72663
C        -11.58544       -6.11087       -0.21336
C        -10.40089       -5.88151        0.40997
C        -10.04794       -4.55513        0.53486
O         -8.91302       -4.26768        1.23243
C         -8.55093       -5.54871        1.59850
N         -7.41446       -5.63770        2.46817
O         -7.10995       -6.77417        2.85514
O         -6.83418       -4.58874        2.77422
C         -9.38137       -6.56366        1.10780
C        -12.31684       -7.33591       -0.43422
S        -11.45781       -8.82822       -0.68902
C        -12.93747       -9.62042       -0.80077
C        -14.05332       -8.84453       -0.67734
C        -13.70303       -7.48550       -0.45885
S        -15.38670       -9.93001       -0.83159
C        -14.45051      -11.37008       -1.00062
C        -14.54138      -12.77877       -1.12811
C        -13.27496      -13.36600       -1.14424
S        -11.98755      -12.17923       -1.11542
C        -13.14903      -10.96860       -0.97473
C        -12.90902      -14.74881       -1.16390
C        -13.84212      -15.71637       -1.17484
C        -13.56719      -17.11973       -1.13395
C        -13.46474      -17.89274       -2.27865
S        -13.62603      -17.38500       -3.95861
S        -13.14192      -19.52818       -1.91132
C        -13.15970      -19.23133       -0.23595
O        -12.96210      -20.24934        0.59913
C        -13.40269      -17.90350        0.06583
C        -13.44253      -17.47001        1.43738
C        -14.15608      -16.46329        1.95917
H        -18.13703       -3.87386       10.29670
H        -18.64343       -8.13979        7.72277
H        -18.36785       -5.57795       12.60567
H        -17.49078       -3.70115        4.09585
H        -18.18634       -1.26269        5.47906
H        -16.62161        0.81678        5.10418
H        -14.39356        1.37187        4.01564
H        -12.47127        1.27368        2.50596
H        -10.93974        0.51250        0.62589
H        -10.43206       -1.70948       -0.72783
H         -9.26926       -7.62288        1.29474
H        -14.41791       -6.68566       -0.30879
H        -15.47728      -13.32091       -1.15969
H        -11.85480      -15.01831       -1.13802
H        -14.89852      -15.46598       -1.19291
H        -14.79673      -16.74207       -3.84925
H        -12.85900      -21.02613        0.02187
H        -12.84731      -18.05822        2.13756
H        -14.81960      -15.84018        1.37255
H        -14.10336      -16.25467        3.02358
