86

C         -5.02847        1.88571       -2.77704
C         -5.45059        2.62434       -3.83275
C         -4.55868        3.37505       -4.65069
N         -3.83423        3.99208       -5.32232
C         -6.81221        2.65855       -4.25680
N         -7.92237        2.70430       -4.59178
C         -3.61065        1.71928       -2.32772
C         -3.54177        0.59666       -1.50404
C         -2.37944        0.13593       -0.89581
C         -1.19131        0.85723       -1.13148
C         -1.24724        2.00105       -1.94300
C         -2.45238        2.45820       -2.53889
S          0.31412        2.72882       -2.09012
C          1.02897        1.54539       -1.12165
C          0.14002        0.61749       -0.65129
Br         2.86046        1.50501       -0.73200
C         -4.86701        0.00655       -1.30806
O         -5.05824       -1.04016       -0.72610
C         -5.84074        0.95261       -1.95569
C         -7.14805        0.99873       -1.64629
C         -7.85933        0.12461       -0.72926
C         -8.61824        0.54885        0.31602
O         -9.22732       -0.34685        1.20730
C         -9.00140       -1.65771        0.96136
C         -8.23973       -2.09357       -0.13940
C         -8.09265       -3.45469       -0.19378
S         -8.93573       -4.20770        1.10388
C         -9.46956       -2.69254        1.72917
O         -7.69964       -1.23263       -1.02715
C         -8.84859        1.93238        0.68398
C         -9.50293        2.81270       -0.08805
C         -9.70372        4.19127        0.28251
C        -10.90087        4.79444        0.42757
C        -12.22883        4.09722        0.30413
C        -10.99246        6.26823        0.74743
N        -10.32907        6.51522        2.00814
C        -10.23390        7.73092        2.62882
C         -9.70509        7.95612        3.83610
C         -9.65015        9.27388        4.43412
C         -9.49277        9.54143        5.73863
C         -9.42453       10.87445        6.28672
C         -9.25699       10.90312        7.61602
C         -9.20959        9.58847        8.23186
S         -9.38803        8.34119        6.99846
C         -9.07117        9.32462        9.54467
C         -8.88990       10.29481       10.60846
C         -8.87504        9.76030       11.83815
C         -9.05148        8.32631       11.84494
S         -9.11414        7.69931       10.21746
C         -9.21641        7.58527       12.95100
C         -9.43638        6.15364       12.96629
C        -10.07869        5.51792       13.95576
C        -10.33134        4.09485       13.94236
C         -9.36032        3.17714       13.82580
C         -9.61055        1.75654       13.83626
C         -8.63102        0.85104       13.73267
H         -2.39791       -0.74376       -0.25848
H         -2.42650        3.36911       -3.12595
H          0.41093       -0.20830       -0.00391
H         -7.77787        1.78865       -2.04160
H         -7.53631       -4.03848       -0.91335
H        -10.08238       -2.64998        2.61786
H         -8.49951        2.21767        1.67455
H         -9.91334        2.51378       -1.05078
H         -8.79505        4.77637        0.42891
H        -12.13669        3.01583        0.17038
H        -12.78807        4.49588       -0.54823
H        -12.82052        4.25872        1.21221
H        -12.03842        6.59225        0.80560
H        -10.51710        6.85010       -0.05159
H        -10.11339        5.70138        2.57854
H        -10.66492        8.54694        2.05098
H         -9.28986        7.12192        4.39656
H         -9.74385       10.10600        3.73906
H         -9.50384       11.75988        5.67144
H         -9.18786       11.82233        8.17879
H         -8.77585       11.35388       10.42854
H         -8.75937       10.33730       12.74516
H         -9.21020        8.07535       13.92235
H         -9.08160        5.58208       12.10931
H        -10.50922        6.06827       14.78837
H        -11.37045        3.79722       14.06703
H         -8.32477        3.49893       13.72847
H        -10.63989        1.41859       13.93349
H         -7.58882        1.13780       13.63153
H         -8.85726       -0.21011       13.74740
