100

C         24.32819       -0.64724       -1.09502
C         25.66880       -0.52422       -0.76465
F         26.56716       -1.31363       -1.36778
C         26.08578        0.39077        0.19052
C         25.14031        1.17746        0.85976
C         23.76556        1.04077        0.58249
C         23.36950        0.12980       -0.43493
C         22.01441       -0.04419       -0.74920
C         21.03644        0.57135        0.01770
C         21.43916        1.45905        1.02625
C         22.77597        1.73905        1.29926
C         20.25976        1.97258        1.75215
O         20.27309        2.78747        2.65079
C         19.05423        1.33551        1.09984
C         19.56133        0.35818        0.11442
C         18.91096       -0.72735       -0.38644
C         17.66069       -1.16172        0.10918
N         16.64308       -1.55064        0.51826
C         19.45386       -1.57262       -1.39929
N         19.88160       -2.23998       -2.25057
C         17.84297        1.85080        1.37970
C         16.60736        1.68198        0.66825
C         16.44899        1.71549       -0.81560
N         15.23865        1.74374       -1.28869
C         14.48643        1.79193       -0.15900
C         15.32115        1.77454        1.02384
C         14.45539        2.03704        2.22452
S         14.87178        2.06538        3.83284
C         13.13744        2.37480        1.58177
C         13.24003        2.12282        0.15992
N         12.13260        2.55978       -0.49402
C         11.42210        3.07636        0.46632
C         11.97952        2.98664        1.84615
C         11.45669        3.67583        2.97885
C         11.66028        5.03498        3.15013
C         12.39669        6.05092        2.33839
F         12.90839        5.54411        1.18981
F         11.59065        7.08333        1.97605
F         13.43781        6.58279        3.02687
S         10.90238        5.61488        4.55789
C         10.28759        4.08282        4.99995
O          9.53858        3.90558        6.10657
C          9.82782        4.73434        7.23845
C         10.60470        3.13376        4.02449
C         10.10258        1.77543        4.13525
C         10.72529        0.68559        3.66441
C         10.35871       -0.68097        3.87038
C          9.05047       -1.28996        4.20522
N          9.06924       -2.54265        4.57959
C         10.38774       -2.86294        4.49263
C         11.13556       -1.76291        3.92390
C         12.56713       -2.15804        3.78838
S         13.82693       -1.42961        3.00586
C         12.58051       -3.45497        4.49642
C         11.23908       -3.80865        4.89177
N         11.25921       -4.96122        5.60520
C         12.52783       -5.27536        5.61875
C         13.45503       -4.37369        4.88467
C         14.86315       -4.50728        4.69157
C         15.81176       -4.57869        5.64129
C         17.18275       -5.10589        5.31069
O         17.69229       -5.22067        4.21687
C         17.76248       -5.53007        6.60522
C         19.00442       -6.12486        6.81370
C         19.37629       -6.44367        8.13059
C         18.49239       -6.13051        9.20358
C         18.85466       -6.42230       10.52172
C         20.05270       -7.06626       10.78109
C         20.92339       -7.39833        9.75178
C         20.59699       -7.07069        8.43260
F         20.36231       -7.38569       12.04397
C         17.25262       -5.53385        8.95312
C         16.87659       -5.24311        7.65263
C         15.70840       -4.50786        7.10213
C         14.94892       -3.66127        7.83347
C         14.47814       -2.43552        7.28221
N         14.17863       -1.39176        6.87674
C         14.69090       -3.85038        9.22075
N         14.45431       -4.05868       10.33348
H         24.04285       -1.38645       -1.83948
H         27.14371        0.47233        0.42079
H         25.48658        1.87618        1.61836
H         21.77362       -0.71341       -1.56615
H         23.03698        2.43541        2.09360
H         17.77070        2.56715        2.20170
H         17.34322        1.76563       -1.45443
H         10.47448        3.61019        0.30178
H          8.98994        4.66429        7.93881
H          9.93433        5.79761        6.99718
H         10.73106        4.37618        7.74333
H          9.19738        1.65095        4.72182
H         11.69019        0.79276        3.19272
H          8.12888       -0.69260        4.11215
H         12.93712       -6.14093        6.15838
H         15.16844       -4.62916        3.64560
H         19.65717       -6.32139        5.96947
H         18.20630       -6.16938       11.35612
H         21.84647       -7.91599        9.98573
H         21.29825       -7.32776        7.63954
H         16.62236       -5.30797        9.80345
