136

C         -0.18496       12.68706        8.68126
C          1.04225       13.10697        8.29947
C          1.40479       14.48502        8.32071
N          1.68411       15.61122        8.34347
C          2.09970       12.18212        8.04894
N          2.98446       11.44490        7.90948
C         -1.20147       13.50269        9.37122
C         -1.78984       12.68805       10.35742
C         -2.78283       13.13122       11.20417
C         -3.27822       14.42115       10.99203
C         -2.76499       15.22744        9.92870
C         -1.69644       14.77090        9.13739
C         -3.36644       16.46341        9.66280
C         -4.43303       16.91528       10.44041
C         -4.89631       16.15036       11.50794
C         -4.32237       14.91020       11.78351
C         -1.36549       11.28091       10.17493
O         -1.67776       10.31797       10.83920
C         -0.62201       11.30840        8.87734
C         -0.96747       10.36196        7.99127
C         -0.93867       10.59503        6.58962
S          0.45799       10.16338        5.72564
C         -0.19580       10.57942        4.18027
C         -1.48097       11.07130        4.33976
C         -1.90473       11.07252        5.72336
C         -3.17477       11.48595        6.14397
C         -4.00709       11.89947        5.07037
C         -5.34425       12.31349        5.40627
N         -6.41637       12.62769        5.72264
C         -3.59384       11.89449        3.68985
O         -4.53110       12.37547        2.79674
C         -4.51974       11.81103        1.48851
C         -2.30267       11.48798        3.27319
C          0.56517       10.34931        2.99673
C          1.79720        9.81379        3.01163
C          2.51979        9.47452        1.80905
C          2.67825       10.42274        0.85577
C          3.27840       10.07102       -0.40580
C          3.41984       10.77209       -1.56220
C          3.14056       12.23287       -1.90940
C          1.67446       12.50026       -2.34708
N          1.26209       11.81959       -3.57881
C          3.52571       13.21615       -0.75942
N          3.31270       14.63604       -1.06619
C          3.90290        9.76009       -2.51521
C          3.97395        9.76381       -3.85322
C          4.33826        8.51575       -4.65040
C          4.71987        7.31132       -3.79522
C          4.66884        7.31631       -2.45669
C          4.17401        8.50367       -1.82656
C          3.76381        8.68363       -0.57112
C          3.67085        7.72724        0.49961
C          3.06007        8.11658        1.62961
C          5.44485        8.77395       -5.63070
C          5.62305        9.88281       -6.36385
C          6.70379        9.96866       -7.28086
S          7.56489       11.45710       -7.35892
C          8.73536       10.85725       -8.47618
C          8.44641        9.54479       -8.79718
C          7.25659        9.05270       -8.15641
C          6.75707        7.75585       -8.35429
C          7.56980        6.96005       -9.19776
C          7.17240        5.58831       -9.36906
N          6.81709        4.48558       -9.45093
C          8.76143        7.44630       -9.83380
O          9.41784        6.53582      -10.63650
C         10.48096        7.03635      -11.44149
C          9.24456        8.75957       -9.64109
C          9.77600       11.74893       -8.85697
C         10.27031       11.78496      -10.10206
C         11.34590       12.65840      -10.48616
C         11.31363       13.99960      -10.51444
C         12.35969       14.94843      -10.93475
C         13.69861       14.78126      -10.83451
C         14.63407       15.79559      -11.18040
N         15.40250       16.61739      -11.46511
C         14.29620       13.58769      -10.31370
N         14.77367       12.61616       -9.90671
C         11.64621       16.20613      -11.31873
C         10.30828       16.09489      -10.92009
C         10.04792       14.78250      -10.33194
O          8.98850       14.44702       -9.84196
C          9.35056       17.07274      -11.12816
C          9.74228       18.24083      -11.77912
C         11.09117       18.39127      -12.20772
C         12.03371       17.36356      -11.97936
C         11.45949       19.57383      -12.86378
C         10.52394       20.58472      -13.09431
C          9.20459       20.42743      -12.67857
C          8.81412       19.26036      -12.02495
H         -3.20637       12.46248       11.94742
H         -1.31626       15.38345        8.32409
H         -3.02673       17.07905        8.83205
H         -4.90572       17.86660       10.20978
H         -5.71947       16.51183       12.11866
H         -4.71270       14.32120       12.61096
H         -1.48392        9.46253        8.32371
H         -3.51675       11.48383        7.17212
H         -5.43486       12.13409        0.98058
H         -4.52718       10.71667        1.52543
H         -3.67273       12.18219        0.90434
H         -1.98499       11.51074        2.24020
H          0.09995       10.57147        2.03902
H          2.31248        9.52368        3.92284
H          2.26774       11.40948        1.00039
H          3.79583       12.50226       -2.75078
H          1.54011       13.57197       -2.53284
H          0.98153       12.22868       -1.54292
H          1.98295       11.94357       -4.28550
H          0.43719       12.29148       -3.94955
H          4.57469       13.07260       -0.47622
H          2.92159       13.02902        0.12627
H          4.01111       14.95731       -1.73436
H          3.45999       15.18509       -0.21771
H          3.67594       10.64173       -4.40757
H          3.45077        8.21238       -5.22271
H          5.03781        6.40390       -4.30238
H          4.95217        6.45174       -1.86922
H          4.03097        6.71455        0.36930
H          2.91747        7.40493        2.43789
H          6.14468        7.94896       -5.74705
H          4.97904       10.74884       -6.24593
H          5.85527        7.36177       -7.90114
H         10.85849        6.21314      -12.05327
H         11.30993        7.39313      -10.82115
H         10.12614        7.82299      -12.11726
H         10.16430        9.11618      -10.07351
H         10.13677       12.45230       -8.10860
H          9.90292       11.13364      -10.88959
H         12.22978       12.10696      -10.79740
H          8.32709       16.90818      -10.80230
H         13.04456       17.50161      -12.34896
H         12.48340       19.72281      -13.20136
H         10.82710       21.49743      -13.60092
H          8.47742       21.21419      -12.86278
H          7.77736       19.15397      -11.71088
