105

C          1.51546       -1.50357        1.65173
O          0.67400       -2.09967        2.28851
C          2.70558       -0.82115        2.19157
C          3.33712       -0.07606        1.18125
C          4.58005        0.48294        1.44116
C          5.15818        0.30442        2.71265
C          4.48723       -0.42377        3.71771
C          3.23749       -0.99119        3.45956
Br         5.23874       -0.74684        5.43242
Br         6.89145        1.04503        2.96944
C          2.50504       -0.16410       -0.05139
C          2.47529        0.71474       -1.07929
C          3.34263        1.84313       -1.14280
N          4.05533        2.75065       -1.18324
C          1.52774        0.60656       -2.14063
N          0.76376        0.50960       -3.01157
C          1.59999       -1.30632        0.16550
C          1.16976       -2.19907       -0.74085
C          0.54559       -3.48084       -0.41775
C          1.27067       -4.65754       -0.15836
F          2.61211       -4.61255       -0.24192
C          0.66766       -5.89527        0.14656
F          1.47534       -6.94757        0.37111
C         -0.72379       -6.08964        0.19682
C         -1.51869       -4.93276       -0.08035
C         -0.86513       -3.60608       -0.40931
N         -1.75217       -2.63845       -0.69480
S         -3.25821       -3.30561       -0.54584
N         -2.86125       -4.84213       -0.08817
C         -1.32175       -7.39480        0.50666
C         -2.49163       -7.79408       -0.00128
C         -3.15210       -9.03435        0.26518
N         -3.64840       -9.43191        1.50349
C         -3.59949       -8.67061        2.73737
C         -4.80136       -7.75230        2.90608
C         -4.43942      -10.60028        1.38274
O         -5.09754      -11.18411        2.21705
C         -4.35499      -10.90269       -0.06102
C         -3.53471       -9.90023       -0.67087
C         -3.50031      -10.14620       -2.11773
O         -2.93314       -9.48183       -2.96590
N         -4.30739      -11.29277       -2.25047
C         -4.63006      -11.84622       -3.55327
C         -3.58791      -12.83843       -4.04397
C         -4.81854      -11.70571       -1.01743
C         -5.78882      -12.74980       -0.84041
C         -5.59077      -14.02785       -1.19079
C         -6.55807      -15.07575       -0.87716
C         -7.56590      -15.50696       -1.75176
C         -7.87563      -14.93830       -3.07406
O         -7.32171      -13.98260       -3.57987
S         -9.17693      -15.79239       -3.85879
C         -9.33949      -16.90050       -2.52233
O        -10.09811      -17.85040       -2.54995
C         -8.41698      -16.57503       -1.41775
C         -8.33155      -17.23852       -0.17436
C         -7.29324      -16.80886        0.66494
C         -6.46889      -15.75258        0.33896
C         -5.55013      -15.53443        1.44769
O         -4.69772      -14.67938        1.54728
O         -5.82062      -16.50598        2.34899
C         -6.79224      -17.34835        1.92739
O         -7.11318      -18.38103        2.47796
C         -9.26910      -18.31596        0.19322
C         -9.78914      -18.47662        1.42090
C        -10.69327      -19.55556        1.74266
C        -10.50406      -20.51934        2.65757
C        -11.37731      -21.73380        2.56444
O        -12.47307      -21.83335        2.05511
C        -10.58998      -22.82672        3.15965
C         -9.37100      -22.34087        3.66253
C         -9.40952      -20.85143        3.58294
C         -8.78612      -20.02199        4.45547
C         -9.22022      -18.67806        4.64877
N         -9.60735      -17.59842        4.83515
C         -7.76185      -20.45596        5.34590
N         -6.93126      -20.82310        6.06754
C         -8.44552      -23.25154        4.15295
C         -8.78890      -24.61600        4.20889
C        -10.04447      -25.06526        3.75097
C        -10.95313      -24.16258        3.19727
Br       -10.59179      -26.88096        3.84966
Br        -7.48903      -25.79159        4.94812
H          5.14048        1.01143        0.67528
H          2.71523       -1.59245        4.19852
H          1.36259       -2.07769       -1.80250
H         -0.74531       -8.05829        1.15058
H         -3.03100       -7.17858       -0.72328
H         -2.67216       -8.09245        2.78801
H         -3.58000       -9.38065        3.57232
H         -4.87305       -7.03335        2.08339
H         -4.72116       -7.19116        3.84278
H         -5.73506       -8.32384        2.93368
H         -4.69329      -11.02029       -4.27188
H         -5.61778      -12.30446       -3.51973
H         -2.61770      -12.35193       -4.18560
H         -3.89796      -13.26918       -5.00129
H         -3.44041      -13.65934       -3.33755
H         -6.69794      -12.44643       -0.32428
H         -4.64891      -14.35274       -1.62404
H         -9.56970      -19.00123       -0.59839
H         -9.54385      -17.78891        2.22049
H        -11.55395      -19.63249        1.07308
H         -7.46503      -22.94055        4.50152
H        -11.91788      -24.47797        2.80990
