124

C         -1.54376        0.62948       -0.20702
C         -0.48887        0.39308       -1.01868
C         -0.65435       -0.17399       -2.31934
N         -0.81019       -0.57471       -3.39791
C          0.81803        0.83698       -0.65961
N          1.85324        1.28055       -0.37354
C         -2.82833       -0.06746       -0.31102
C         -3.12915       -0.53830        0.97621
C         -4.17954       -1.39833        1.21020
C         -5.02377       -1.69973        0.12867
C         -4.82689       -1.06879       -1.13905
C         -3.70488       -0.26004       -1.35868
C         -5.75860       -1.27490       -2.16380
C         -6.83084       -2.14569       -1.97871
C         -6.97751       -2.82605       -0.77231
C         -6.08753       -2.59643        0.27859
C         -2.25251        0.14685        1.96641
O         -2.22009       -0.01257        3.16638
C         -1.49899        1.16048        1.13933
C         -1.37154        2.40485        1.62399
C         -1.21644        3.62102        0.88193
S         -1.79910        5.08440        1.66311
C         -0.74712        4.01761       -0.34976
C         -0.31955        3.47423       -1.60399
O         -0.88799        2.58096       -2.20527
N          0.55468        4.36960       -2.14912
C          1.26687        4.10747       -3.38504
C          0.33541        3.86820       -4.56089
C          0.24864        5.62050       -1.69094
O          0.54743        6.67384       -2.22396
C         -0.55012        5.39873       -0.49910
C         -1.36078        6.10531        0.33996
C         -1.86148        7.41981        0.29001
C         -1.55068        8.23965       -0.70857
C         -1.94684        9.59438       -0.84113
N         -2.16536       10.28519       -2.03472
C         -2.12908        9.79463       -3.40257
C         -1.88319        8.31722       -3.58888
C         -2.55817       11.61665       -1.76937
O         -2.86840       12.50208       -2.54006
C         -2.54628       11.67058       -0.29618
C         -2.13357       10.40372        0.19696
C         -2.10155       10.44950        1.66684
O         -1.77143        9.56582        2.43066
N         -2.54240       11.75697        1.94080
C         -2.58541       12.26522        3.30202
C         -3.89686       12.01860        4.03601
C         -2.78637       12.45864        0.74686
C         -3.24116       13.80495        0.67281
C         -2.99386       14.67143       -0.32821
C         -3.43255       16.01170       -0.21371
S         -4.85781       16.41973        0.68523
C         -2.90577       17.15760       -0.73555
C         -1.79309       17.51711       -1.57397
O         -0.98593       16.75676       -2.07959
N         -1.85239       18.89330       -1.66765
C         -0.88565       19.67025       -2.41221
C          0.29266       20.10032       -1.55082
C         -2.88496       19.44827       -0.93486
O         -3.14492       20.62559       -0.80605
C         -3.58091       18.32723       -0.35324
C         -4.67088       18.11187        0.45129
C         -5.60672       18.98257        1.06058
C         -5.90032       20.15564        0.48838
C         -6.80536       21.10416        1.06921
C         -6.48324       22.36438        1.39095
C         -7.30012       23.34116        2.12666
C         -8.64959       23.45942        2.06388
C         -9.35750       24.48874        2.76027
N         -9.92333       25.30601        3.32774
C         -9.46357       22.61607        1.26622
N        -10.13997       21.90888        0.61510
C         -6.33822       24.26647        2.79342
C         -5.06306       24.05072        2.25190
C         -5.09731       22.94086        1.29584
O         -4.16429       22.60529        0.60444
C         -3.92882       24.75038        2.63801
C         -4.06342       25.71389        3.64103
C         -5.33950       25.94039        4.23101
C         -6.46760       25.20536        3.80514
C         -5.45524       26.90184        5.24442
C         -4.34233       27.62731        5.67313
C         -3.09568       27.40188        5.09654
C         -2.95535       26.45083        4.08571
H         -4.35400       -1.79260        2.20621
H         -3.53652        0.21476       -2.32237
H         -5.65708       -0.76089       -3.11810
H         -7.54492       -2.30307       -2.78310
H         -7.79485       -3.53076       -0.64422
H         -6.23149       -3.12984        1.21566
H         -1.55513        2.52642        2.69581
H          1.90247        3.22378       -3.22904
H          1.91920        4.95599       -3.61197
H         -0.34055        3.02788       -4.38143
H          0.91085        3.64079       -5.45969
H         -0.27839        4.75044       -4.75923
H         -2.51940        7.75393        1.07545
H         -0.89572        7.87434       -1.44764
H         -1.34800       10.34632       -3.93812
H         -3.07888       10.05553       -3.88641
H         -0.96549        8.02748       -3.11367
H         -1.68407        8.06136       -4.62088
H         -2.71016        7.70933       -3.20715
H         -2.42222       13.34313        3.28743
H         -1.75587       11.81493        3.86867
H         -4.73620       12.43315        3.46955
H         -3.86366       12.52091        5.01075
H         -4.09870       10.95989        4.22321
H         -3.81968       14.12171        1.53090
H         -2.42990       14.41596       -1.22491
H         -1.37869       20.55378       -2.83045
H         -0.52121       19.05575       -3.24220
H         -0.02614       20.76461       -0.74102
H          1.02955       20.63711       -2.15730
H          0.78704       19.23515       -1.09688
H         -6.06916       18.68438        2.00111
H         -5.45518       20.46817       -0.45090
H         -7.78172       20.68514        1.29006
H         -2.96796       24.52915        2.17927
H         -7.41721       25.38035        4.29989
H         -6.41853       27.09886        5.71108
H         -4.45096       28.36968        6.45986
H         -2.23025       27.96632        5.43490
H         -1.97102       26.28893        3.65027
