90

C         -5.03682        3.39921       10.03555
C         -4.02161        2.51149       10.18090
C         -3.80740        1.80294       11.39086
N         -3.63941        1.22798       12.38586
C         -3.14955        2.17715        9.10500
N         -2.43550        1.92151        8.22747
C         -6.09651        3.74828       11.03021
C         -7.17654        4.29930       10.33234
C         -8.31167        4.82890       10.92867
C         -8.37004        4.81361       12.33727
C         -7.30307        4.24511       13.05338
C         -6.15103        3.70496       12.41790
S         -7.59819        4.32295       14.75621
C         -9.07227        5.11513       14.53327
C         -9.37956        5.33173       13.21779
Br       -10.17882        5.64860       15.94743
C         -6.88906        4.35234        8.89556
O         -7.70097        4.53578        8.01543
C         -5.41823        4.09296        8.79074
C         -4.62754        4.66718        7.87004
C         -5.13748        5.55259        6.88879
S         -5.60883        4.97479        5.31909
C         -6.04705        6.56684        4.73765
C         -5.84203        7.44612        5.75671
C         -5.32945        6.90461        6.91019
O         -5.11245        7.87021        7.81951
C         -5.51977        9.02929        7.16355
S         -5.48428       10.52794        7.83537
O         -5.96868        8.77677        5.87547
C         -6.47490        6.71759        3.40004
C         -7.32819        7.67432        3.00438
C         -7.79182        7.78910        1.63412
C         -8.10789        8.94751        1.00649
C         -8.05677       10.31800        1.47960
C         -8.38781       11.30961        0.62845
C         -8.79918       11.04397       -0.74979
C         -8.87174        9.79327       -1.25354
C         -8.51910        8.67622       -0.39295
C         -8.47760        7.34560       -0.62594
C         -8.07198        6.72514        0.64308
C         -8.00802        5.40281        0.86052
C         -8.79051        6.73761       -1.86553
S         -7.56502        6.52832       -3.09670
C         -8.66062        5.78003       -4.23567
C         -9.86432        5.64772       -3.60514
C         -9.93734        6.16364       -2.33286
O        -11.16471        5.96598       -1.82177
C        -11.83640        5.29322       -2.83692
S        -13.38345        4.75278       -2.72013
O        -11.03944        5.10042       -3.95700
C         -8.21356        5.43772       -5.53903
C         -9.07123        5.40428       -6.57105
C         -8.69270        5.06746       -7.91964
C         -7.78347        5.65066       -8.71132
C         -6.85012        6.78636       -8.58674
C         -7.04938        7.96391       -7.94395
C         -6.07746        9.01569       -7.90980
N         -5.29264        9.86237       -7.86502
C         -8.29264        8.30300       -7.32865
N         -9.30348        8.62551       -6.85645
C         -5.73056        6.49946       -9.54442
C         -6.11068        5.43258      -10.36267
C         -7.40516        4.88616       -9.94169
O         -7.99527        3.96201      -10.46507
C         -5.34901        4.93903      -11.41475
C         -4.11870        5.57536      -11.68127
C         -3.71124        6.62920      -10.84903
C         -4.49228        7.09332       -9.75960
S         -2.18047        7.25717      -11.34766
C         -2.08926        6.18036      -12.64337
C         -3.15484        5.32427      -12.71596
Br        -0.66788        6.16294      -13.86242
H         -9.09715        5.27829       10.32704
H         -5.34448        3.31780       13.03148
H        -10.27842        5.83465       12.88024
H         -3.54647        4.57659        7.90742
H         -6.08139        6.00217        2.68500
H         -7.70988        8.40954        3.70904
H         -7.75358       10.53520        2.49693
H         -8.35758       12.34710        0.95005
H         -9.05165       11.90374       -1.36405
H         -9.18803        9.61951       -2.27527
H         -7.77540        4.98748        1.83424
H         -8.20393        4.67517        0.08214
H         -7.15694        5.22968       -5.68931
H        -10.13557        5.59441       -6.43215
H         -9.22744        4.18895       -8.29302
H         -5.70300        4.10395      -12.01379
H         -4.10298        7.89996       -9.15116
H         -3.26646        4.55989      -13.47572
