104

C         -1.95548       -1.48652        0.76468
C         -1.83990       -2.17957       -0.39663
C         -1.11837       -3.40163       -0.51411
N         -0.52563       -4.39897       -0.62196
C         -2.46468       -1.77317       -1.61553
N         -2.95011       -1.45682       -2.61400
C         -1.40909       -1.92106        2.09409
C         -1.94614       -1.10338        3.08835
C         -1.70093       -1.25630        4.45056
C         -0.85077       -2.30787        4.85275
C         -0.27093       -3.11342        3.86266
C         -0.52545       -2.92598        2.47879
S          0.75050       -4.31948        4.56238
C          0.39576       -3.80198        6.12887
C         -0.44987       -2.72594        6.16776
Br         1.09382       -4.62229        7.66122
C         -2.77880       -0.04659        2.50863
O         -3.32199        0.82553        3.15604
C         -2.75147       -0.25061        1.01624
C         -3.36649        0.60288        0.17700
C         -4.20012        1.73010        0.57443
C         -5.48778        1.88564        0.22725
C         -6.36903        2.90921        0.74196
C         -7.66876        2.66602        0.50585
C         -7.90034        1.42300       -0.20799
S         -6.36199        0.78845       -0.80546
C         -9.05946        0.74626       -0.30924
C        -10.34595        1.09403        0.26208
C        -11.21582        0.07001        0.28865
C        -10.68391       -1.15864       -0.26974
S         -9.16176       -0.83678       -1.05523
C        -11.25702       -2.36593       -0.12191
C        -10.71435       -3.60126       -0.60393
S        -11.05178       -5.07122        0.27897
C         -9.92787       -3.88211       -1.72695
C         -9.58241       -5.24013       -1.82557
C         -8.81316       -6.13901       -2.69086
C         -8.09361       -5.83883       -3.79813
C         -7.25896       -6.85037       -4.54934
N         -8.03865       -7.51611       -5.58922
C         -8.03628       -4.46492       -4.41991
N         -6.93549       -3.67902       -3.88174
C        -10.13939       -5.95272       -0.79202
C         -9.78729       -7.30458       -0.94434
S        -10.13554       -8.70258       -0.13740
C         -9.00511       -7.44820       -2.06700
C         -8.69207       -8.80403       -2.29794
C         -9.20336       -9.62442       -1.29038
C         -9.08340      -11.03583       -1.16703
C         -9.07939      -11.63720        0.03222
C         -8.97649      -13.04232        0.13000
O         -8.87690      -13.86817       -0.96150
C         -8.77924      -15.17744       -0.55737
C         -8.82822      -15.17665        0.82710
C         -8.96032      -13.84851        1.24944
O         -9.05317      -13.41895        2.52002
O         -8.76400      -16.24024        1.65025
C         -8.65200      -16.24370       -1.47391
C         -8.70185      -16.02646       -2.79573
C         -8.56650      -17.07739       -3.77182
C         -8.93846      -18.35159       -3.57071
C         -8.83299      -19.42072       -4.57760
C         -7.85394      -19.45293       -5.59379
O         -6.93912      -18.43019       -5.63480
C         -5.99092      -18.43720       -6.68863
C         -7.83319      -20.52094       -6.49212
C         -8.75694      -21.55905       -6.39422
C         -9.71338      -21.54466       -5.38872
C         -9.74685      -20.48715       -4.47797
H         -2.16082       -0.58850        5.17434
H         -0.02311       -3.58169        1.77851
H         -0.78477       -2.25328        7.08335
H         -3.33116        0.47517       -0.89980
H         -3.75513        2.42998        1.27900
H         -6.00757        3.75267        1.31367
H         -8.46801        3.29945        0.86311
H        -10.56719        2.06954        0.67062
H        -12.20778        0.13040        0.71575
H        -12.17632       -2.43270        0.45715
H         -9.62756       -3.12066       -2.42699
H         -6.82055       -7.59177       -3.87580
H         -6.39525       -6.36340       -5.01800
H         -8.36838       -6.82062       -6.25587
H         -7.42014       -8.12898       -6.11841
H         -8.97543       -3.91883       -4.31355
H         -7.89720       -4.56229       -5.50415
H         -7.08154       -3.55222       -2.87921
H         -6.98279       -2.73594       -4.27067
H         -8.12754       -9.19336       -3.13548
H         -8.97216      -11.61694       -2.08093
H         -9.15282      -11.08444        0.96282
H         -9.02001      -14.20160        3.10125
H         -8.67442      -17.06065        1.13930
H         -8.51911      -17.24553       -1.09141
H         -8.81646      -15.02118       -3.20595
H         -8.16018      -16.74914       -4.72311
H         -9.36611      -18.64807       -2.61556
H         -5.33994      -17.56460       -6.57425
H         -6.48790      -18.35870       -7.66165
H         -5.36149      -19.32965       -6.62806
H         -7.09478      -20.58297       -7.28479
H         -8.71563      -22.38082       -7.10285
H        -10.43012      -22.35662       -5.31117
H        -10.50393      -20.50891       -3.69533
