93

C         -1.18719      -11.71941       -9.93663
C         -0.98082      -11.22942      -11.22220
F         -0.97961      -12.08284      -12.25510
C         -0.78567       -9.87270      -11.43632
F         -0.59480       -9.40745      -12.67809
C         -0.79380       -8.98017      -10.36926
C         -1.00756       -9.44716       -9.06405
C         -1.20482      -10.84302       -8.84370
C         -1.44278      -11.32770       -7.54075
C         -1.49197      -10.44388       -6.46916
C         -1.32416       -9.07476       -6.72532
C         -1.06384       -8.55808       -7.98502
C         -1.59748       -8.28512       -5.51506
O         -1.54159       -7.07654       -5.40998
C         -2.04101       -9.27198       -4.48320
C         -1.79424      -10.62560       -5.01946
C         -1.73667      -11.78828       -4.32396
C         -1.37269      -13.02517       -4.92487
N         -1.07676      -14.03381       -5.42007
C         -1.99845      -11.87612       -2.92627
N         -2.23095      -11.96520       -1.79337
C         -2.68848       -8.86837       -3.38307
N         -3.00832       -7.59073       -2.96548
C         -3.67637       -7.25302       -1.82008
S         -3.58628       -8.23195       -0.39455
C         -4.58852       -7.19866        0.47880
N         -4.93893       -7.50088        1.83770
O         -5.65012       -6.67029        2.41717
O         -4.52638       -8.55757        2.33450
C         -4.99293       -6.10629       -0.24904
C         -4.48438       -6.14004       -1.59072
C         -4.78562       -5.16583       -2.60172
C         -5.55516       -4.07365       -2.45145
C         -5.76939       -3.11314       -3.50448
C         -4.81068       -2.39909       -4.13154
C         -3.33539       -2.47262       -3.82257
C         -5.17514       -1.39608       -5.19670
N         -5.18228       -2.06423       -6.48435
C         -6.28462       -2.62420       -7.07490
C         -6.35778       -3.21431       -8.27417
C         -7.60278       -3.77075       -8.76136
C         -7.95599       -3.99252      -10.03557
C         -9.22732       -4.56651      -10.40413
C         -9.37314       -4.74487      -11.72216
C         -8.22042       -4.33158      -12.50723
S         -7.01032       -3.60013      -11.45104
C         -8.06803       -4.52622      -13.83213
C         -8.99484       -5.25401      -14.67941
C         -8.57884       -5.41105      -15.94162
C         -7.30774       -4.77993      -16.21777
S         -6.67538       -4.00050      -14.77977
C         -6.64045       -4.76407      -17.38351
C         -7.13243       -5.42351      -18.54182
S         -6.66055       -7.05075      -18.88606
C         -7.66962       -7.17866      -20.30195
C         -8.35022       -5.99510      -20.45865
C         -8.00033       -4.99976      -19.51210
C         -8.71205       -3.76924      -19.77665
O         -8.57730       -2.70969      -19.18730
C         -9.66664       -4.03587      -20.94427
C         -9.36969       -5.48377      -21.35537
O         -9.93379       -6.08683      -22.25481
C         -7.65281       -8.40243      -21.02683
C         -7.87370       -8.46188      -22.34522
H         -1.34135      -12.78815       -9.80948
H         -0.64723       -7.92307      -10.57506
H         -1.62801      -12.39021       -7.41471
H         -0.95453       -7.48543       -8.11857
H         -3.10842       -9.60807       -2.71197
H         -2.74282       -6.86121       -3.63658
H         -5.63749       -5.33524        0.15626
H         -4.33957       -5.32070       -3.58289
H         -6.08121       -3.86011       -1.52592
H         -6.81412       -2.94165       -3.76434
H         -3.04577       -3.36618       -3.26611
H         -3.04186       -1.60644       -3.22233
H         -2.74491       -2.47707       -4.74523
H         -4.45314       -0.57200       -5.21460
H         -6.15024       -0.94047       -4.99243
H         -4.28081       -2.34220       -6.85866
H         -7.18289       -2.52115       -6.46785
H         -5.47949       -3.26798       -8.91093
H         -8.31625       -4.03436       -7.98101
H         -9.98464       -4.82581       -9.67686
H        -10.27252       -5.15703      -12.15551
H         -9.92041       -5.67919      -14.32007
H         -9.13622       -5.96789      -16.68106
H         -5.68982       -4.24372      -17.46689
H         -9.45399       -3.36086      -21.77516
H        -10.69890       -3.95852      -20.59441
H         -7.40992       -9.32180      -20.49731
H         -8.08475       -7.58960      -22.95445
H         -7.83804       -9.41425      -22.86509
