74

C         -5.41652        0.52731        3.25882
C         -4.84722        0.13811        4.40132
C         -4.61529        0.97360        5.54824
C         -4.02727        0.32821        6.56561
C         -3.74992       -1.07559        6.29574
S         -4.29152       -1.48844        4.66416
C         -3.16914       -1.95269        7.13863
C         -2.70046       -1.66992        8.48360
C         -2.15695       -2.72393        9.10793
C         -2.14782       -3.93069        8.31177
S         -2.86383       -3.64571        6.74431
C         -1.64153       -5.09659        8.73929
C         -1.62952       -6.27365        7.94930
S         -0.25422       -6.63787        6.97594
C         -1.07116       -8.07025        6.45639
N         -2.25008       -8.22618        7.02660
N         -2.55881       -7.20691        7.90466
C         -0.43423       -8.91546        5.51346
C         -1.14157       -9.72348        4.71071
C         -0.49168      -10.56004        3.76105
O         -1.06339      -11.73238        3.31076
C         -0.21282      -12.38021        2.43470
C          0.90450      -11.57079        2.29849
C          0.72591      -10.44510        3.11175
O          1.59115       -9.42173        3.24076
O          1.99055      -11.79771        1.53422
C         -0.50952      -13.63755        1.84061
C         -1.68383      -14.25113        2.05304
C         -1.98221      -15.53326        1.45692
C         -3.22810      -15.99608        1.27025
C         -3.49269      -17.29846        0.65697
C         -2.67387      -18.42876        0.77182
N         -2.87249      -19.67473        0.23858
C         -3.97186      -19.93196       -0.52327
C         -4.93109      -18.90588       -0.70405
C         -4.67648      -17.54349       -0.08817
N         -5.67098      -16.67137       -0.34062
S         -6.79600      -17.47351       -1.25786
N         -6.10081      -18.97415       -1.36631
C         -4.15852      -21.27829       -1.03886
C         -3.68994      -21.72426       -2.21207
C         -3.81895      -23.08986       -2.66059
C         -3.17767      -23.34223       -3.81011
C         -2.48589      -22.18904       -4.36692
S         -2.81568      -20.76300       -3.37680
C         -1.67740      -22.18490       -5.44365
C         -1.32653      -23.33801       -6.26218
C         -0.43207      -23.07507       -7.22088
C         -0.01354      -21.69828       -7.24816
S         -0.83503      -20.75308       -6.04300
C          0.90067      -21.18102       -8.07396
H         -5.75954        1.54472        3.10946
H         -5.55675       -0.16773        2.43611
H         -4.89423        2.01791        5.57340
H         -3.78511        0.81211        7.50066
H         -2.77862       -0.69617        8.94535
H         -1.75671       -2.68626       10.11193
H         -1.21920       -5.18256        9.73398
H          0.64927       -8.88366        5.45864
H         -2.22533       -9.77630        4.76774
H          2.34745       -9.59042        2.64776
H          1.90445      -12.63745        1.05315
H          0.22839      -14.08966        1.18682
H         -2.44534      -13.79868        2.68701
H         -1.12087      -16.11950        1.14224
H         -4.09376      -15.38894        1.52877
H         -1.75415      -18.37078        1.35394
H         -4.67105      -21.94638       -0.35537
H         -4.36367      -23.83683       -2.09917
H         -3.16213      -24.32099       -4.26726
H         -1.73655      -24.32511       -6.09724
H         -0.04555      -23.81693       -7.91219
H          1.41224      -21.78469       -8.80976
H          1.16847      -20.12680       -8.02374
