91

C         -3.18500       -1.85525       -0.13924
C         -2.11223       -2.38293        0.49544
C         -1.64592       -3.70540        0.24882
N         -1.26573       -4.78311        0.04774
C         -1.32592       -1.62566        1.41299
N         -0.70163       -1.00094        2.16478
C         -4.00107       -2.50804       -1.20996
C         -4.68112       -1.50643       -1.90896
C         -5.57174       -1.74607       -2.94734
C         -5.82087       -3.08989       -3.29989
C         -5.14582       -4.10658       -2.60518
C         -4.22907       -3.83695       -1.55346
S         -5.60239       -5.66601       -3.19927
C         -6.67492       -4.99916       -4.31948
C         -6.71534       -3.63168       -4.28522
Br        -7.71222       -6.02903       -5.49131
C         -4.40055       -0.18521       -1.33032
O         -4.68512        0.88000       -1.83578
C         -3.67747       -0.46085       -0.04306
C         -3.72310        0.35514        1.02591
C         -4.45672        1.57568        1.03277
C         -4.02667        2.87096        0.74301
C         -5.09343        3.79279        0.82421
C         -6.26251        3.18068        1.21826
S         -6.13934        1.54797        1.49188
C         -7.29155        4.14396        1.25966
C         -6.77757        5.36540        0.88526
C         -5.35038        5.21547        0.59561
C         -4.48075        6.16701        0.20295
C         -3.11145        5.87016       -0.04263
N         -1.99196        5.63302       -0.23764
C         -4.87953        7.51753        0.01525
N         -5.21005        8.62111       -0.13640
C         -7.77325        6.36576        0.87348
C         -9.01685        5.84606        1.24304
S         -8.91174        4.14597        1.61399
C        -10.30602        6.53286        1.34730
N        -11.39937        5.79675        1.18941
C        -12.53553        6.47722        1.28577
N        -12.64851        7.78136        1.53570
C        -11.48064        8.40714        1.65589
N        -10.27665        7.84805        1.56348
C        -13.77692        5.72758        1.09902
C        -15.04096        5.96206        1.64684
C        -15.97353        5.00271        1.19896
C        -15.39291        4.10106        0.33471
S        -13.77883        4.33804        0.04859
C        -16.36345        3.16841       -0.07760
C        -17.56838        3.49792        0.50091
C        -17.38099        4.64797        1.38545
C        -18.26789        5.17156        2.25403
C        -17.92043        6.24424        3.11850
N        -17.64036        7.12145        3.82497
C        -19.58809        4.65452        2.37683
N        -20.66366        4.22866        2.46842
C        -18.58373        2.58665        0.14294
C        -18.04705        1.51303       -0.56412
S        -16.37756        1.77324       -0.97766
C        -18.69413        0.35013       -1.02960
C        -18.81681       -0.81652       -0.37976
C        -18.42452       -1.45007        0.90453
C        -17.84030       -0.93463        2.01763
C        -17.40189       -1.73809        3.11528
N        -17.02057       -2.35700        4.01837
C        -17.59509        0.43533        2.30132
N        -17.37981        1.49390        2.72144
C        -18.84964       -2.89905        0.79483
C        -19.44150       -3.11584       -0.44848
C        -19.46741       -1.88084       -1.22715
O        -19.93028       -1.77421       -2.34559
C        -19.97494       -4.33291       -0.87381
C        -19.93694       -5.41957        0.02630
C        -19.36867       -5.21480        1.28879
C        -18.82589       -3.96730        1.68737
S        -19.43894       -6.64522        2.25247
C        -20.20121       -7.50862        1.02081
C        -20.41322       -6.76861       -0.11240
Br       -20.70920       -9.30211        1.19919
H         -6.08594       -0.92397       -3.43769
H         -3.76869       -4.67202       -1.03595
H         -7.35091       -3.02898       -4.92331
H         -3.29673        0.06878        1.98133
H         -3.00541        3.09006        0.45550
H         -7.64765        7.40677        0.59823
H        -11.51355        9.47551        1.84473
H        -15.22859        6.77940        2.33357
H        -19.61924        2.61399        0.45992
H        -19.09659        0.44439       -2.04100
H        -20.42110       -4.42892       -1.86045
H        -18.43593       -3.90577        2.69343
H        -20.89222       -7.15566       -1.00342
