98

C         -2.63445       -1.07946       -1.90762
C         -1.99699       -2.07330       -1.24365
C         -1.43008       -3.20140       -1.90299
N         -0.97210       -4.12201       -2.43932
C         -1.79117       -2.03777        0.16914
N         -1.63802       -2.00449        1.31528
C         -2.79315       -0.94781       -3.38933
C         -3.12982        0.37807       -3.67587
C         -3.40696        0.86181       -4.94717
C         -3.34196       -0.05111       -6.01928
C         -2.99085       -1.38376       -5.75095
C         -2.71832       -1.85623       -4.43923
S         -2.95507       -2.31572       -7.20708
C         -3.41419       -0.98969       -8.14519
C         -3.60401        0.15266       -7.41628
Br        -3.64255       -1.07382      -10.00223
C         -3.22857        1.17023       -2.44678
O         -3.31078        2.37880       -2.39713
C         -3.17187        0.17331       -1.32801
C         -3.74152        0.39058       -0.13149
C         -4.40443        1.60520        0.19595
C         -3.89094        2.75788        0.79190
C         -4.91311        3.69591        1.05117
C         -6.12632        3.25013        0.58371
S         -6.11032        1.74660       -0.11718
C         -7.10991        4.20619        0.89208
C         -6.53774        5.25038        1.57881
C         -5.09685        5.00195        1.69297
C         -4.15505        5.78253        2.25566
C         -2.78747        5.39201        2.28627
N         -1.67358        5.06749        2.31650
C         -4.47335        7.03371        2.84995
N         -4.71672        8.05487        3.34459
C         -7.51163        6.20179        1.97227
C         -8.79376        5.83226        1.54601
S         -8.73008        4.34423        0.61743
C        -10.11887        6.49123        1.70521
C        -11.25566        5.67205        1.76999
C        -12.52796        6.20895        1.71588
C        -12.72034        7.59393        1.65212
C        -11.59951        8.44706        1.71800
N        -11.77032        9.79266        1.76129
C        -10.67567       10.57346        1.83270
C         -9.41231       10.04156        1.84915
N         -9.19963        8.71120        1.79037
C        -10.28032        7.89055        1.74088
C        -14.10426        8.11217        1.48628
C        -14.55973        9.25751        0.82031
C        -15.96631        9.36247        0.86647
C        -16.51889        8.31366        1.56113
S        -15.44125        7.22316        2.17648
C        -17.91302        8.47766        1.61230
C        -18.25563        9.61516        0.91984
C        -17.03486       10.26953        0.44131
C        -16.91940       11.47920       -0.14019
C        -15.65314       12.02876       -0.48205
N        -14.62656       12.48454       -0.77336
C        -18.05835       12.28701       -0.41367
N        -18.99016       12.93852       -0.64974
C        -19.64957        9.84376        0.96183
C        -20.25893        8.96103        1.85153
S        -19.16575        7.71397        2.38154
C        -21.59808        8.87616        2.28428
C        -22.14116        9.47062        3.35685
C        -21.78803       10.41729        4.44528
C        -20.68423       11.18456        4.64189
C        -20.44497       11.91079        5.84670
N        -20.21974       12.49814        6.82353
C        -19.63076       11.40582        3.71250
N        -18.72944       11.74132        3.06166
C        -22.97710       10.43131        5.38288
C        -23.93139        9.52305        4.93061
C        -23.50330        8.90802        3.67843
O        -24.14687        8.08691        3.05543
C        -25.15811        9.28239        5.54740
C        -25.48678       10.05518        6.68049
C        -24.56457       11.01231        7.12112
C        -23.31003       11.21138        6.48883
S        -25.17329       11.88948        8.47910
C        -26.61586       11.01521        8.47473
C        -26.67136       10.06152        7.49335
Br       -28.00615       11.33287        9.68853
H         -3.69057        1.90037       -5.09525
H         -2.48620       -2.90650       -4.30279
H         -3.91053        1.10039       -7.84315
H         -3.81379       -0.38816        0.62090
H         -2.84059        2.86057        1.03389
H         -7.32662        7.10651        2.54002
H        -11.17265        4.58819        1.82173
H        -13.36222        5.51158        1.69173
H        -10.85133       11.64214        1.87715
H         -8.52968       10.66715        1.91456
H        -13.88559        9.95901        0.34335
H        -20.18219       10.66596        0.49879
H        -22.19235        8.15544        1.71792
H        -25.84781        8.54622        5.14253
H        -22.68161       11.99883        6.88231
H        -27.51929        9.40593        7.33627
