134

C         -5.23410       -2.27058       -0.03526
C         -4.16563       -2.95992       -0.50295
C         -3.95209       -4.34771       -0.22133
N         -3.78492       -5.46678        0.00660
C         -3.20827       -2.37252       -1.37848
N         -2.42684       -1.89421       -2.08995
C         -6.37757       -2.83326        0.75083
C         -7.46124       -1.96135        0.62622
C         -8.68844       -2.15184        1.25324
C         -8.83848       -3.29054        2.07669
C         -7.75616       -4.17435        2.20586
C         -6.51205       -3.96170        1.55363
S         -8.15815       -5.49678        3.24704
C         -9.70871       -4.89117        3.52660
C         -9.96099       -3.71892        2.86615
Br       -10.95934       -5.73880        4.63476
C         -7.09998       -0.78885       -0.18800
O         -7.88316        0.02892       -0.61916
C         -5.61089       -0.87412       -0.37315
C         -4.82851        0.19899       -0.59697
C         -5.29507        1.58600       -0.78585
C         -5.39479        2.45870        0.30995
C         -5.87794        3.75207        0.10056
C         -6.25444        4.19089       -1.18750
C         -6.12124        3.34457       -2.27760
C         -5.63967        2.04216       -2.07258
C         -6.75658        5.54960       -1.10446
C         -6.70042        5.98456        0.23641
C         -6.10666        4.88298        1.12868
C         -7.11797        4.37978        2.19945
C         -7.63323        5.41185        3.19896
C         -4.76881        5.33792        1.77022
C         -3.65646        5.70848        0.78662
C         -7.11007        7.26929        0.59043
C         -7.62161        8.12276       -0.39673
C         -7.67709        7.68017       -1.73299
C         -7.23446        6.39791       -2.09256
C         -8.12892        9.45908       -0.02492
C         -9.42263        9.59930        0.31349
C         -9.96079       10.87580        0.70273
C         -9.13823       12.09227        0.75723
C         -7.83943       12.13414        0.45306
S         -6.93160       10.73316       -0.05557
C         -9.99291       13.13963        1.16354
C        -11.26350       12.65019        1.34859
C        -12.18305       13.62415        1.76632
C        -11.54471       14.85227        1.88156
S         -9.85654       14.77424        1.47573
C        -11.22630       11.23478        1.06163
C        -12.37779       10.37259        1.12490
C        -12.42744        9.28058        1.90400
C        -13.57416        8.36969        1.97801
C        -13.79735        7.69310        3.18291
C        -14.86503        6.81243        3.27187
C        -15.68322        6.55506        2.15038
C        -15.46054        7.20142        0.94851
C        -14.40357        8.11168        0.86803
C        -16.64730        5.53548        2.48768
C        -16.43934        5.13993        3.82107
C        -15.31793        5.97320        4.47116
C        -14.19429        5.08314        5.05628
C        -13.48262        4.17251        4.06060
C        -15.95864        6.87155        5.57523
C        -15.00055        7.76960        6.35620
C        -17.18260        4.11046        4.37588
C        -18.20580        3.51134        3.62298
C        -18.39960        3.91259        2.28591
C        -17.61826        4.92338        1.71163
C        -19.01802        2.40503        4.16303
C        -19.36604        2.19101        5.44152
C        -19.11988        2.92997        6.68321
C        -19.30926        4.25716        6.89106
C        -19.03383        4.89253        8.13372
N        -18.76853        5.40852        9.13902
C        -19.90324        5.09422        5.90135
N        -20.44385        5.78206        5.14035
C        -18.99651        1.91437        7.75982
C        -19.55997        0.72471        7.28401
C        -19.85260        0.83039        5.84016
O        -20.32673       -0.03337        5.13340
C        -19.79271       -0.38426        8.08439
C        -19.43753       -0.28912        9.45036
C        -18.79132        0.87211        9.90466
C        -18.52867        1.97886        9.06459
S        -18.41324        0.76119       11.58616
C        -19.16322       -0.74372       11.71740
C        -19.64751       -1.21690       10.52726
Br       -19.31777       -1.66984       13.33748
H         -9.48997       -1.42773        1.13399
H         -5.70952       -4.67028        1.72343
H        -10.89785       -3.17848        2.93180
H         -3.74496        0.12251       -0.59937
H         -5.11245        2.13394        1.30623
H         -6.39753        3.66821       -3.27552
H         -5.55005        1.37674       -2.92891
H         -6.64952        3.57106        2.77648
H         -7.99226        3.92991        1.70905
H         -6.82468        5.99013        3.65330
H         -8.17747        4.91132        4.00647
H         -8.34213        6.10048        2.73029
H         -4.38590        4.54389        2.42406
H         -4.94167        6.21096        2.41091
H         -3.32178        4.83976        0.21145
H         -2.78896        6.09064        1.33440
H         -3.97164        6.48736        0.08606
H         -7.03555        7.61466        1.61700
H         -8.06112        8.34424       -2.50520
H         -7.27005        6.08571       -3.13105
H        -10.09298        8.74406        0.30462
H         -7.29389       13.06690        0.50616
H        -13.23254       13.46760        1.98120
H        -11.97355       15.79747        2.18592
H        -13.22150       10.67058        0.50978
H        -11.58676        9.03479        2.54925
H        -13.14458        7.85386        4.03511
H        -16.07565        7.00150        0.07795
H        -14.22041        8.60263       -0.08429
H        -14.60392        4.45869        5.86127
H        -13.42197        5.70956        5.51688
H        -14.17506        3.49061        3.56028
H        -12.73857        3.56605        4.58760
H        -12.95083        4.75219        3.30041
H        -16.47187        6.23550        6.30911
H        -16.73759        7.51031        5.13602
H        -14.26635        7.18696        6.91957
H        -15.55875        8.37272        7.07956
H        -14.46941        8.46866        5.70788
H        -16.94655        3.78479        5.38085
H        -19.16048        3.43401        1.67088
H        -17.77283        5.20853        0.67588
H        -19.27959        1.64903        3.42052
H        -20.26753       -1.27265        7.67741
H        -18.02244        2.84648        9.47300
H        -20.15410       -2.16796       10.41679
