98

C          1.21280       -0.23490       -0.92888
O          2.00307       -1.15104       -0.92225
C          1.42508        1.00559       -0.19174
C          0.53112        1.99317       -0.61933
C          0.52452        3.20073        0.06312
C          1.41018        3.38246        1.14881
C          2.29793        2.36073        1.54529
C          2.31556        1.15317        0.85730
Br         3.46612        2.50687        3.03403
Br         1.31561        5.04888        2.05946
C         -0.29613        1.41587       -1.72130
C         -0.95037        2.11039       -2.68257
C         -0.95384        3.53195       -2.72742
N         -0.93851        4.69252       -2.75890
C         -1.61734        1.45858       -3.76526
N         -2.16520        0.91942       -4.62940
C         -0.08648       -0.05590       -1.66265
C         -0.98129       -1.02915       -1.92195
C         -0.81472       -2.41036       -1.58557
C          0.30070       -3.24636       -1.64300
C          0.04483       -4.50863       -1.07942
C         -1.27884       -4.65786       -0.73956
S         -2.21057       -3.30827       -1.00968
C         -1.47322       -5.96816       -0.24450
C         -0.26538       -6.63363       -0.25783
C          0.77304       -5.73611       -0.77514
C          2.09285       -5.97019       -0.91775
C          2.66099       -7.22330       -0.57869
N          3.11308       -8.25341       -0.29880
C          2.99591       -4.99144       -1.42051
N          3.76184       -4.22443       -1.84113
C         -0.39481       -7.95697        0.22398
C         -1.71755       -8.25018        0.57580
S         -2.75733       -6.86784        0.30929
C         -2.27479       -9.46704        1.09473
C         -2.72139      -10.39033        0.21999
C         -3.30819      -11.62931        0.66345
C         -3.43661      -11.98694        2.08229
C         -3.03725      -11.20568        3.08500
S         -2.30889       -9.63687        2.84391
C         -4.04104      -13.26352        2.12220
C         -4.29531      -13.69087        0.84093
C         -4.87394      -14.96851        0.77613
C         -5.04436      -15.46981        2.05933
S         -4.49623      -14.36913        3.28949
C         -3.83745      -12.65867       -0.05682
C         -3.90124      -12.72910       -1.49096
C         -5.05005      -12.84300       -2.17326
C         -5.05036      -12.93886       -3.59145
C         -4.14127      -12.43261       -4.52373
C         -4.50513      -12.78460       -5.83502
C         -5.66781      -13.52269       -5.86009
S         -6.33982      -13.81476       -4.37264
C         -5.95694      -13.87200       -7.19444
C         -4.96209      -13.37096       -8.00082
C         -4.01410      -12.60565       -7.19668
C         -2.97337      -11.86393       -7.62364
C         -2.68462      -11.73455       -9.01118
N         -2.49746      -11.65399      -10.15364
C         -2.14354      -11.14604       -6.71932
N         -1.46849      -10.56645       -5.97432
C         -5.11332      -13.79814       -9.32956
C         -6.30973      -14.49719       -9.51196
S         -7.13248      -14.73257       -7.99082
C         -6.86358      -15.07121      -10.69341
C         -6.65503      -14.58955      -11.92747
C         -6.83191      -15.54049      -13.07333
O         -7.52385      -16.53385      -13.12426
C         -5.87598      -15.07886      -14.09894
C         -5.27748      -13.87060      -13.69985
C         -5.95020      -13.41489      -12.45575
C         -6.09080      -12.13026      -12.04577
C         -6.98155      -11.75442      -10.99494
N         -7.69762      -11.42709      -10.14309
C         -5.41848      -11.04845      -12.68286
N         -4.86605      -10.16871      -13.19541
C         -4.21994      -13.36763      -14.44232
C         -3.81521      -14.05254      -15.60286
C         -4.46429      -15.23804      -16.00763
C         -5.50432      -15.76878      -15.24048
Br        -3.96899      -16.20351      -17.56641
Br        -2.35137      -13.30700      -16.56116
H         -0.16785        3.99819       -0.19019
H          2.96311        0.32773        1.14192
H         -1.96802       -0.76302       -2.29547
H          1.25622       -2.92401       -2.03403
H          0.40165       -8.68493        0.32387
H         -2.66162      -10.22129       -0.85123
H         -3.15860      -11.53006        4.11386
H         -5.14467      -15.50660       -0.12379
H         -5.45658      -16.42813        2.34691
H         -2.93837      -12.69604       -1.99446
H         -6.00272      -12.88355       -1.64810
H         -3.27519      -11.84976       -4.23570
H         -4.40953      -13.61489      -10.12986
H         -7.38777      -16.02118      -10.57810
H         -3.68070      -12.47528      -14.13627
H         -5.99395      -16.70293      -15.50150
