146

C         -4.79397       -3.10255       -4.65745
C         -4.89863       -1.72828       -4.85572
C         -4.42189       -0.82412       -3.86297
C         -4.73833        0.56802       -3.98574
N         -5.06004        1.69062       -4.03227
C         -3.76450       -1.29455       -2.70770
C         -3.20542       -0.41455       -1.71919
N         -2.72748        0.26570       -0.90268
C         -3.70900       -2.66996       -2.47980
C         -4.29668       -3.50630       -3.42194
C         -4.72909       -4.86917       -3.14720
O         -4.83615       -5.26236       -2.00520
C         -5.20700       -5.48405       -4.43788
C         -5.20417       -4.34116       -5.41764
C         -5.33277       -4.39465       -6.76749
C         -5.15486       -3.24542       -7.59292
N         -4.99238       -2.29714       -8.24061
C         -5.54899       -5.60939       -7.47681
N         -5.68719       -6.59607       -8.07211
C         -5.55718       -6.79329       -4.54135
C         -5.39643       -7.86069       -3.48725
C         -6.29571       -8.92064       -3.20797
C         -7.54963       -9.28239       -4.00636
O         -8.18500       -8.41140       -4.58646
C         -7.85020      -10.74357       -4.15469
C         -6.78316      -11.57664       -4.48202
S         -7.17235      -13.21516       -4.55505
C         -8.81215      -12.85941       -4.28270
C         -9.12305      -11.53218       -4.03624
C        -10.48958      -11.01402       -3.69192
O        -10.62027       -9.81192       -3.45910
C        -11.78535      -11.85411       -3.58406
C        -11.92112      -13.24390       -3.72179
C        -13.16714      -13.89961       -3.69397
C        -14.33069      -13.18671       -3.46647
C        -14.23973      -11.81911       -3.24673
C        -12.99076      -11.16503       -3.31241
C         -6.01942       -9.74430       -2.09576
C         -4.92696       -9.52135       -1.24955
C         -4.03130       -8.48068       -1.48621
C         -4.20961       -7.78953       -2.69859
C         -3.15644       -7.89359       -0.38948
C         -3.23606       -8.41986        0.86849
C         -3.09021       -7.53365        2.01826
C         -3.45007       -7.71868        3.32391
C         -3.78614       -9.07278        3.97329
C         -3.08998       -9.35087        5.34314
N         -3.41262      -10.63498        5.98368
C         -5.29465       -9.37503        4.04211
N         -5.94697       -9.38577        2.72967
C         -3.43405       -6.34306        3.88256
C         -3.96414       -5.76209        4.98008
C         -3.88700       -4.22494        5.22459
C         -2.98779       -3.48762        4.24775
C         -2.45853       -4.07138        3.16432
C         -2.79382       -5.44347        2.91366
C         -2.66949       -6.14624        1.78537
C         -2.23552       -5.73468        0.48087
C         -2.46788       -6.57580       -0.54437
C         -3.57195       -3.87517        6.66983
C         -2.85807       -2.84763        7.19816
C         -3.01325       -2.60807        8.64758
C         -2.16725       -2.97850        9.69391
C         -0.68791       -2.72812        9.78245
O         -0.39464       -2.08236       10.80116
C          0.42426       -3.03105        8.85735
C          1.59265       -2.28447        9.03483
S          2.86653       -2.68042        7.98973
C          1.91821       -3.88805        7.26225
C          0.68067       -4.07114        7.87215
C         -0.19135       -5.19747        7.55984
O         -1.31262       -5.30364        8.04575
C          0.26498       -6.28893        6.66237
C         -0.58846       -6.64083        5.62745
C         -0.28008       -7.70054        4.78081
C          0.83407       -8.48755        5.02218
C          1.70353       -8.13895        6.05007
C          1.43514       -7.02696        6.85923
C         -2.77682       -3.10787       10.97109
C         -4.11765       -2.75532       11.22922
C         -4.90795       -2.19477       10.22980
C         -4.31681       -2.13078        8.96600
C         -6.24614       -1.63310       10.57091
C         -7.11178       -0.92946        9.81494
C         -8.02776        0.05158       10.50205
O         -8.57585       -0.04934       11.57619
C         -8.01839        1.24639        9.61375
C         -8.47161        2.51708        9.92305
C         -8.16158        3.56123        9.03160
C         -7.38728        3.30557        7.87452
C         -6.97230        1.99135        7.56693
C         -7.32003        0.95423        8.43103
C         -7.07019       -0.49838        8.41562
C         -7.11702       -1.31420        7.32833
C         -7.22659       -2.73087        7.45275
N         -7.31985       -3.88384        7.53643
C         -7.03706       -0.79506        6.00936
N         -6.91016       -0.34416        4.94811
C         -6.96168        4.37624        7.00293
N         -6.58474        5.22275        6.29732
C         -8.61165        4.88822        9.34470
N         -8.98133        5.95517        9.60620
H         -5.41277       -1.31605       -5.72147
H         -3.29847       -3.08407       -1.56104
H         -5.98957       -7.18980       -5.45560
H         -5.75373      -11.29311       -4.65340
H         -9.41687      -13.73691       -4.32612
H        -11.09974      -13.92102       -3.83777
H        -13.21294      -14.97716       -3.84718
H        -15.29136      -13.69680       -3.44778
H        -15.14468      -11.25459       -3.03053
H        -12.98179      -10.08860       -3.14337
H         -6.69181      -10.55447       -1.81869
H         -4.85797      -10.15203       -0.36878
H         -3.45835       -7.05674       -2.97651
H         -3.70299       -9.37006        1.08463
H         -3.35493       -9.84128        3.31096
H         -3.26295       -8.54206        6.05809
H         -2.01802       -9.42028        5.16744
H         -4.32995      -10.58726        6.42458
H         -2.75527      -10.79770        6.74919
H         -5.79070       -8.65773        4.70245
H         -5.45331      -10.37325        4.46579
H         -5.72947       -8.52016        2.23545
H         -6.95617       -9.38717        2.86563
H         -4.54684       -6.34658        5.68486
H         -4.90750       -3.85264        5.04462
H         -2.79630       -2.43095        4.40735
H         -1.81417       -3.52654        2.48472
H         -1.77914       -4.76336        0.33654
H         -2.17190       -6.25670       -1.53577
H         -4.09109       -4.53388        7.37206
H         -2.36543       -2.08159        6.61177
H          1.75886       -1.50987        9.77464
H          2.37275       -4.45433        6.46013
H         -1.50553       -6.08521        5.50860
H         -0.93880       -7.96006        3.96095
H          1.00305       -9.37351        4.41480
H          2.58477       -8.74873        6.22640
H          2.12846       -6.77335        7.65433
H         -2.15841       -3.39306       11.82415
H         -4.48072       -2.84066       12.25221
H         -4.84937       -1.69871        8.13709
H         -6.46529       -1.67865       11.64233
H         -9.01332        2.69847       10.84890
H         -6.35290        1.81117        6.69452
