101

C         -2.50475       -6.90627       -3.12185
C         -2.70044       -8.13747       -3.72836
C         -3.09488       -8.17399       -5.08261
C         -3.35257       -9.45757       -5.67464
N         -3.57755      -10.50703       -6.11239
C         -3.26101       -6.97731       -5.82107
C         -3.64008       -7.00277       -7.20630
N         -3.93806       -7.00923       -8.32643
C         -3.07950       -5.73375       -5.19850
C         -2.73355       -5.72811       -3.85809
C         -2.67541       -4.54832       -2.96215
O         -2.75182       -3.38454       -3.28527
C         -2.59973       -5.13614       -1.57894
C         -2.06867       -6.48982       -1.76237
C         -0.98336       -7.03199       -1.15808
C         -0.47299       -8.30564       -1.53043
N         -0.10756       -9.36532       -1.84564
C         -0.15035       -6.28050       -0.27986
N          0.59894       -5.69105        0.38090
C         -3.37626       -4.55657       -0.64264
C         -3.97529       -5.17502        0.55468
C         -3.33582       -5.20438        1.78651
C         -2.14611       -4.49227        2.22415
O         -1.61651       -3.66835        1.50309
N         -1.90028       -4.86538        3.52638
C         -2.90849       -5.66796        4.00540
O         -3.07219       -6.16611        5.10262
C         -3.85745       -5.84116        2.90927
C         -5.10163       -6.43501        2.91224
C         -5.81613       -6.31138        1.72584
C         -5.27956       -5.69910        0.57953
C         -6.28044       -5.60790       -0.49133
O         -6.08952       -5.07295       -1.56759
S         -7.79982       -6.34524       -0.02802
C         -7.20087       -6.74279        1.56045
O         -7.84290       -7.29975        2.43141
C         -0.83663       -4.45385        4.29890
C          0.09776       -3.59146        3.87697
C          1.17214       -3.17053        4.68768
S          1.81209       -1.56072        4.45799
C          2.99099       -1.71637        5.72784
C          2.89293       -2.98772        6.21690
C          1.89798       -3.76561        5.67575
O          1.86760       -4.96961        6.27246
C          2.88793       -4.88775        7.21388
S          3.29005       -6.10076        8.24621
O          3.53328       -3.65969        7.18672
C          3.80707       -0.60666        6.07115
C          5.03871       -0.79180        6.56713
C          5.93040        0.30507        6.94740
C          5.98587        0.80643        8.25517
C          5.21653        0.52199        9.48626
O          4.30508       -0.28268        9.54919
N          5.73451        1.32272       10.49399
C          6.74307        2.11709       10.01434
O          7.41621        2.98322       10.54313
C          6.92165        1.77051        8.61412
C          7.86477        2.27934        7.74622
C          7.80298        1.80262        6.44797
C          6.84608        0.86899        6.03478
C          6.94318        0.63907        4.58236
O          6.11868        0.05643        3.90490
S          8.36480        1.41143        3.89707
C          8.72564        2.21353        5.39815
O          9.63522        3.00369        5.57381
C          5.25492        1.31202       11.79026
C          5.69602        2.07911       12.80007
C          5.14272        2.00733       14.13139
C          4.56973        3.01012       14.81003
C          4.40929        2.84235       16.29098
O          4.44480        1.82063       16.94223
C          4.28711        4.20568       16.83077
C          4.22392        4.54574       18.17449
C          4.18066        5.90369       18.50442
C          4.25222        6.87714       17.48856
C          4.31723        6.49759       16.12503
C          4.29485        5.14949       15.79060
C          4.24888        4.40882       14.49286
C          3.72236        4.89142       13.33976
C          3.35329        4.06249       12.24027
N          2.99122        3.43308       11.33456
C          3.35940        6.25827       13.17813
N          3.07073        7.37549       13.06341
C          4.25037        8.27850       17.80165
N          4.26441        9.41107       18.03113
C          4.05884        6.27355       19.88691
N          3.94236        6.55349       21.00524
H         -2.57798       -9.06962       -3.17906
H         -3.23643       -4.79616       -5.72811
H         -3.77084       -3.55813       -0.85095
H         -5.51937       -6.89695        3.80291
H         -0.81102       -4.87370        5.30411
H          0.04524       -3.14110        2.89070
H          3.40337        0.38952        5.91121
H          5.45203       -1.79332        6.67572
H          8.59960        3.01251        8.06421
H          4.42338        0.62795       11.95641
H          6.51733        2.78294       12.67854
H          5.33526        1.06154       14.64351
H          4.20743        3.76935       18.93704
H          4.38537        7.27829       15.37060
