117

C         -3.60818       -8.11541       -0.74687
C         -4.47631       -8.08021        0.29138
C         -4.70376       -9.21381        1.12115
N         -4.85598      -10.15456        1.78319
C         -5.24739       -6.91540        0.58108
N         -5.87100       -5.96746        0.82577
C         -2.84649       -9.27781       -1.26401
C         -2.53958       -9.02271       -2.61271
C         -1.78566       -9.87150       -3.39608
C         -1.34227      -11.05272       -2.81014
C         -1.59369      -11.31733       -1.44603
C         -2.34643      -10.42319       -0.66495
Cl        -0.98069      -12.72570       -0.65135
Cl        -0.52267      -12.15606       -3.84295
C         -3.00043       -7.68247       -3.00762
O         -2.90959       -7.18879       -4.10975
C         -3.40402       -7.03594       -1.71399
C         -2.98013       -5.76404       -1.62572
C         -2.36485       -5.03857       -0.48751
C         -1.99366       -3.68672       -0.59662
C         -2.45596       -2.85048       -1.72973
O         -3.53254       -2.27727       -1.59796
C         -1.68517       -2.80874       -2.98042
C         -0.63018       -3.66547       -3.26246
S         -0.17962       -3.65195       -4.90836
C         -1.29188       -2.41125       -5.24636
C         -1.94564       -1.93627       -4.11860
C         -2.82368       -0.76069       -4.24425
O         -3.41122       -0.53099       -5.30163
C         -2.90818        0.27165       -3.16628
C         -3.98511        1.17336       -3.19469
C         -4.10126        2.17566       -2.22853
C         -3.13579        2.29390       -1.23255
C         -2.04400        1.42789       -1.21528
C         -1.91987        0.42912       -2.18647
C         -1.19755       -3.07705        0.38573
C         -0.76167       -3.80528        1.50071
C         -1.13018       -5.14107        1.66376
C         -1.91212       -5.72924        0.64998
C         -0.68516       -5.95359        2.80144
S         -0.37978       -7.64530        2.63180
C          0.08182       -7.85167        4.27473
C         -0.04585       -6.65021        4.90701
C         -0.45970       -5.58602        4.09732
S         -0.56882       -4.05938        5.06649
C         -0.04193       -5.10705        6.41961
N          0.20023       -6.40735        6.23084
C          0.48225       -9.13405        4.70855
C          1.31698       -9.29505        5.74724
C          1.69017      -10.62338        6.25532
C          1.80040      -10.94184        7.61544
C          1.14166      -10.12415        8.71222
O          1.68051      -10.08308        9.81417
C         -0.18849       -9.49918        8.47827
C         -1.02774       -9.91491        7.44768
S         -2.47677       -9.04462        7.29775
C         -2.16222       -8.25654        8.76009
C         -0.90377       -8.51793        9.29607
C         -0.61544       -7.89592       10.59462
O         -1.53100       -7.78980       11.41603
C          0.67077       -7.25263       10.96787
C          0.89454       -7.04456       12.34403
C          2.04195       -6.39854       12.80100
C          2.97486       -5.93187       11.88273
C          2.74254       -6.08677       10.51252
C          1.58961       -6.73993       10.04891
C          2.42906      -12.15583        7.95961
C          2.83595      -13.07609        6.96755
C          2.58935      -12.81962        5.61698
C          1.97344      -11.61302        5.30508
C          2.86226      -13.81399        4.55572
C          3.16384      -13.59092        3.25856
C          3.22917      -14.56332        2.14061
C          3.65725      -15.84538        2.19025
C          3.83094      -16.65892        1.03874
N          3.97265      -17.30631        0.09120
C          4.06864      -16.45755        3.41081
N          4.39989      -16.94193        4.40201
C          2.93795      -13.80187        0.89263
C          2.99589      -12.43514        1.18773
C          3.30388      -12.23734        2.60348
O          3.63411      -11.16998        3.07412
C          2.77809      -11.42885        0.25833
C          2.53383      -11.81205       -1.05745
C          2.49153      -13.18004       -1.39371
C          2.64994      -14.17397       -0.41067
Cl         2.30574      -13.73410       -3.01743
Cl         2.29279      -10.55282       -2.21311
H         -1.53800       -9.60890       -4.42082
H         -2.50286      -10.63907        0.38798
H         -2.85622       -5.25436       -2.58230
H         -0.15349       -4.39027       -2.61689
H         -1.40003       -2.04546       -6.26061
H         -4.73838        1.10506       -3.97815
H         -4.94278        2.86391       -2.25818
H         -3.22693        3.06939       -0.47566
H         -1.28232        1.53884       -0.44778
H         -1.03880       -0.20268       -2.16554
H         -0.90221       -2.03506        0.28548
H         -0.11381       -3.31340        2.22208
H         -2.12858       -6.78287        0.75247
H          0.08115       -4.64982        7.39355
H          0.06489       -9.99080        4.18537
H          1.73409       -8.44576        6.28333
H         -0.85501      -10.67928        6.70582
H         -2.93179       -7.62976        9.19119
H          0.15744       -7.37883       13.07361
H          2.19736       -6.26023       13.86827
H          3.87775       -5.43946       12.23685
H          3.46681       -5.68943        9.80523
H          1.41923       -6.81490        8.97926
H          2.58257      -12.41134        9.00762
H          3.31094      -14.00793        7.27256
H          1.69951      -11.41485        4.27609
H          2.70220      -14.82971        4.91174
H          2.81229      -10.38393        0.55481
H          2.55127      -15.21210       -0.71042
