96

C          0.40381       -0.34722       -4.64312
C          0.72698        0.47596       -5.67109
C         -0.09869        1.57354       -6.06076
N         -0.77328        2.46379       -6.36443
C          1.88836        0.28829       -6.47120
N          2.84775        0.16292       -7.11291
C         -0.84534       -0.29402       -3.83033
C         -1.04581       -1.54683       -3.23022
C         -2.12183       -1.83520       -2.40311
C         -3.02231       -0.80529       -2.12749
C         -2.81751        0.47819       -2.67100
C         -1.72835        0.73457       -3.52426
Cl        -3.85820        1.80807       -2.29658
Cl        -4.34561       -1.15914       -1.07516
C          0.09798       -2.43208       -3.50153
O          0.20829       -3.58627       -3.14069
C          1.10566       -1.58881       -4.23914
C          2.41258       -1.90741       -4.29702
C          2.98042       -3.13655       -3.72569
C          3.43756       -3.19172       -2.40841
C          3.65630       -2.14166       -1.40125
O          3.42100       -0.96324       -1.60393
N          4.18394       -2.75320       -0.27847
C          4.27787       -4.11308       -0.46568
O          4.66018       -5.01191        0.26053
C          3.83672       -4.38667       -1.82425
C          3.83816       -5.59425       -2.49425
C          3.44459       -5.53926       -3.82360
C          3.03166       -4.34889       -4.43356
C          2.71322       -4.55378       -5.85136
O          2.37142       -3.67282       -6.61916
S          2.93605       -6.22578       -6.32948
C          3.44149       -6.68569       -4.72450
O          3.77162       -7.80910       -4.39068
C          4.59559       -2.05281        0.84260
C          5.11237       -2.60957        1.95106
C          5.58461       -1.89018        3.14413
C          6.62852       -2.46962        3.89714
C          7.12455       -1.87146        5.06956
C          6.52620       -0.68262        5.49566
C          5.46025       -0.18139        4.77186
C          4.96641       -0.71365        3.58767
O          4.98589        0.90564        5.43733
C          5.85898        1.07283        6.47338
N          6.79752        0.15113        6.55360
C          5.64420        2.24932        7.29890
C          5.30450        3.49056        6.74627
C          5.02294        3.94244        5.36585
O          5.01643        3.22841        4.37962
N          4.76580        5.29674        5.42169
C          4.86930        5.76802        6.70213
O          4.74372        6.88213        7.17694
C          5.18979        4.62709        7.54220
C          5.36818        4.62639        8.90668
C          5.67282        3.39690        9.46623
C          5.81367        2.23101        8.69929
C          6.08062        1.07116        9.57252
O          6.11398       -0.09217        9.22720
S          6.24531        1.54616       11.25799
C          5.85885        3.20084       10.89779
O          5.74599        4.09155       11.72020
C          4.48257        6.03954        4.29834
C          4.30320        7.36656        4.27382
C          4.05149        8.13411        3.07849
C          4.83952        8.22276        1.99568
C          4.70663        9.10355        0.81191
C          3.55757        9.60214        0.29101
C          3.52537       10.37420       -0.90395
N          3.50796       11.00237       -1.87925
C          2.27435        9.34903        0.86497
N          1.23788        9.14439        1.33600
C          6.07451        9.20837        0.21416
C          6.90561        8.26711        0.83873
C          6.19144        7.56746        1.90577
O          6.67304        6.67130        2.56515
C          8.24889        8.09252        0.54129
C          8.80752        8.92509       -0.42199
C          8.00937        9.89279       -1.06275
C          6.64348       10.03768       -0.74301
Cl         8.65966       10.96230       -2.25578
Cl        10.49306        8.74615       -0.74868
H         -2.23405       -2.82068       -1.95994
H         -1.58721        1.74658       -3.89185
H          3.15194       -1.24357       -4.73500
H          4.15907       -6.51526       -2.01625
H          4.49599       -0.97135        0.75930
H          5.22571       -3.68756        2.03126
H          7.07891       -3.40765        3.57166
H          7.93323       -2.32158        5.63471
H          4.14365       -0.23823        3.07005
H          5.26481        5.53178        9.49850
H          4.45046        5.46391        3.37297
H          4.32026        7.96075        5.18376
H          3.16259        8.74969        3.18720
H          8.83885        7.34934        1.07126
H          6.08113       10.82008       -1.24209
