120

C         -2.44654        4.86975        2.36875
C         -2.13411        4.13111        3.43404
C         -3.05343        3.35458        4.22191
C         -2.45679        2.65184        5.19608
C         -1.00778        2.79939        5.22109
S         -0.50375        3.98891        4.01726
C         -0.14624        2.09617        5.98067
C         -0.49135        1.09678        6.97550
C          0.55963        0.39761        7.42439
C          1.81036        0.79306        6.82046
S          1.61045        2.20070        5.82011
C          2.96114        0.14015        7.01445
C          4.27473        0.50115        6.47252
N          4.99393        1.23995        7.37325
C          6.26716        1.41908        6.95118
C          7.19252        2.14559        7.65766
S          8.74284        2.05602        6.92719
C          8.14830        1.07923        5.64708
C          6.79911        0.86458        5.74111
N          6.07508        0.16724        4.82209
C          4.76913        0.02603        5.21615
C          3.89284       -0.66816        4.23861
C          4.12443       -0.72151        2.91127
C          3.19553       -1.32856        1.91864
N          1.88528       -1.23977        2.31025
C          1.04141       -1.63063        1.32477
C         -0.32300       -1.63668        1.46733
S         -1.10046       -2.13177        0.01521
C          0.39792       -2.35841       -0.79707
C          1.45658       -2.07884        0.03006
N          2.74649       -2.21988       -0.35278
C          3.61959       -1.86025        0.64587
C          5.02838       -2.18107        0.29029
C          5.95796       -2.52327        1.27919
C          7.28403       -2.73465        0.95203
C          7.69740       -2.76920       -0.39068
C          6.79602       -2.50859       -1.40504
C          5.47673       -2.18785       -1.05675
C          9.11781       -2.99822       -0.43399
C          9.61801       -3.01273        0.88470
C          8.50036       -2.69667        1.89253
C          8.46988       -3.72720        3.05174
C          7.45114       -3.51410        4.17264
C          8.61872       -1.20641        2.34276
C          9.98314       -0.75685        2.84231
C         10.96739       -3.20477        1.13634
C         11.83614       -3.33357        0.05179
C         11.33071       -3.31116       -1.26373
C          9.96523       -3.15797       -1.51453
C         13.27285       -3.40019        0.32673
C         14.11394       -4.09030       -0.44279
C         15.55437       -4.18863       -0.20577
C         16.18492       -5.37063       -0.60475
C         17.54866       -5.49954       -0.41281
C         18.30138       -4.43223        0.11642
C         17.69288       -3.24805        0.49544
C         16.31146       -3.13144        0.33498
C         19.69450       -4.80102        0.13282
C         19.83395       -6.11359       -0.36387
C         18.45766       -6.67867       -0.77659
C         18.40103       -6.98866       -2.29642
C         18.61015       -5.78804       -3.22386
C         18.15442       -7.92876        0.10166
C         16.85273       -8.67904       -0.17114
C         21.08505       -6.71702       -0.43002
C         22.21550       -5.98326       -0.03327
C         22.05708       -4.66738        0.44968
C         20.79810       -4.06906        0.53089
C         23.53612       -6.62670       -0.09083
C         24.68421       -5.97553       -0.31928
H         -3.46206        4.93662        1.99663
H         -1.68225        5.42055        1.82718
H         -4.11603        3.33712        4.02550
H         -2.99931        2.00002        5.86500
H         -1.50010        0.92592        7.32395
H          0.49290       -0.38970        8.16267
H          2.99825       -0.71984        7.67657
H          7.04417        2.70124        8.57131
H          8.82315        0.71561        4.89968
H          2.98397       -1.10898        4.63769
H          5.01752       -0.25860        2.49632
H         -0.89610       -1.36975        2.34149
H          0.43006       -2.68583       -1.82537
H          5.66461       -2.56144        2.31662
H          7.10930       -2.48994       -2.44379
H          4.78409       -1.92690       -1.85733
H          9.45371       -3.75108        3.53756
H          8.31294       -4.73507        2.64469
H          7.57155       -2.54395        4.66138
H          7.58171       -4.28321        4.94222
H          6.42172       -3.61375        3.83005
H          7.85991       -0.99060        3.10086
H          8.36902       -0.53891        1.50303
H          9.90528        0.20502        3.34653
H         10.66486       -0.57885        2.00457
H         10.42957       -1.47410        3.53416
H         11.35052       -3.20975        2.15393
H         12.00522       -3.37787       -2.11426
H          9.59342       -3.14354       -2.53207
H         13.62026       -2.87194        1.20355
H         13.74605       -4.66711       -1.29059
H         15.61357       -6.16686       -1.06929
H         18.26766       -2.41979        0.89516
H         15.83379       -2.19576        0.61490
H         17.42603       -7.41958       -2.55476
H         19.15240       -7.74849       -2.54456
H         17.80437       -5.05442       -3.12149
H         18.60964       -6.11931       -4.26791
H         19.56217       -5.28395       -3.03529
H         18.15772       -7.64110        1.16226
H         18.96684       -8.65824       -0.01421
H         15.97154       -8.04245       -0.07945
H         16.73128       -9.48306        0.56310
H         16.85133       -9.14122       -1.16239
H         21.18276       -7.73598       -0.79196
H         22.91950       -4.09289        0.77917
H         20.69951       -3.05291        0.89658
H         23.55411       -7.70506        0.04766
H         24.72568       -4.90495       -0.49013
H         25.62509       -6.51550       -0.35541
