104

C          0.73407        0.04551       -1.78117
C          1.87864       -0.29523       -2.41103
C          2.07856       -1.60943       -2.94124
N          2.23115       -2.68344       -3.36165
C          2.98964        0.59304       -2.49188
N          3.89175        1.32591       -2.51179
C         -0.40461       -0.83724       -1.44613
C         -0.97541       -0.35844       -0.25501
C         -2.14676       -0.86587        0.27837
C         -2.84639       -1.81594       -0.47613
C         -2.31619       -2.28035       -1.71712
C         -1.06423       -1.81670       -2.17472
C         -3.09709       -3.14148       -2.50468
C         -4.37600       -3.52613       -2.09369
C         -4.88025       -3.08595       -0.87366
C         -4.11487       -2.24730       -0.06349
C         -0.35513        0.93820        0.11205
O         -0.54810        1.60905        1.10448
C          0.45471        1.31586       -1.09605
C          0.53280        2.54024       -1.65953
C         -0.03202        3.84742       -1.23207
C          0.62565        5.05903       -1.51208
C          1.75963        5.21741       -2.43747
O          2.03642        4.44203       -3.33332
S          2.50751        6.77379       -2.24012
C          0.99984        7.40601       -1.60969
O          0.67577        8.56711       -1.74745
C          0.15877        6.31668       -1.06642
C         -1.01055        6.43154       -0.29961
C         -1.69235        5.22207       -0.04858
C         -1.27296        4.00564       -0.60245
C         -2.38551        3.04321       -0.63476
O         -2.45477        2.11562       -1.42192
S         -3.69525        3.51474        0.40622
C         -2.88407        5.00854        0.80210
O         -3.21749        5.70067        1.74454
C         -1.56479        7.71154        0.13999
O         -2.93145        7.72644        0.25163
C         -3.20392        8.89035        0.88847
C         -2.02610        9.61659        0.96205
N         -0.98653        8.84412        0.48435
C         -2.07429       10.89880        1.52198
C         -3.27449       11.34909        2.09299
C         -4.39535       10.53885        2.04090
C         -4.41151        9.30219        1.42347
O         -5.40441       11.16629        2.70131
C         -4.84441       12.34592        3.16931
N         -3.58042       12.49095        2.78172
C         -5.58128       13.24096        3.99809
C         -4.93367       14.03887        4.86468
C         -5.61842       14.93757        5.79812
C         -5.99229       14.50236        7.08230
C         -5.62595       13.22780        7.72117
O         -4.85104       12.40941        7.26529
S         -6.39435       13.04121        9.28096
C         -7.05474       14.65348        9.21519
O         -7.71083       15.14732       10.11397
C         -6.74037       15.31134        7.93824
C         -7.11093       16.61312        7.58068
C         -6.67755       17.07578        6.33217
C         -5.94878       16.26184        5.46104
C         -5.56022       16.98491        4.23876
O         -4.85559       16.54180        3.35284
S         -6.21343       18.60751        4.20893
C         -6.89266       18.43100        5.80397
O         -7.47539       19.32626        6.38911
C         -7.83808       17.47575        8.51598
C         -7.24190       18.30512        9.38767
C         -7.82728       19.16444       10.43740
C         -9.08553       19.65508       10.48059
C         -9.53194       20.54861       11.48844
N         -9.89803       21.28077       12.31309
C        -10.08127       19.34010        9.50689
N        -10.89528       19.07178        8.73065
C         -6.70175       19.52651       11.35487
C         -5.49519       19.12328       10.77048
C         -5.74660       18.38162        9.52734
O         -4.90521       17.88505        8.80376
C         -4.25117       19.33466       11.34749
C         -4.20290       19.95382       12.60151
C         -5.41404       20.32740       13.24735
C         -6.65672       20.10769       12.61458
C         -5.35319       20.90937       14.52257
C         -4.12651       21.13164       15.14980
C         -2.94197       20.77946       14.50987
C         -2.97865       20.19318       13.24390
H         -2.56841       -0.43438        1.18112
H         -0.69277       -2.14411       -3.14215
H         -2.73647       -3.48901       -3.47094
H         -4.98608       -4.15801       -2.73506
H         -5.88001       -3.37688       -0.56038
H         -4.53981       -1.89738        0.87538
H          1.02137        2.58229       -2.63022
H         -1.18612       11.52009        1.55868
H         -5.29256        8.67353        1.40678
H         -6.66256       13.20551        3.92064
H         -3.84671       14.00486        4.93932
H         -8.91324       17.34233        8.47015
H         -3.34905       19.00355       10.84040
H         -7.55796       20.38377       13.15147
H         -6.26496       21.19581       15.04397
H         -4.09758       21.58136       16.13934
H         -1.98732       20.95741       14.99890
H         -2.03966       19.92125       12.76579
