130

C          1.81705        2.58798       -6.45818
C          1.98615        1.30718       -6.06573
C          2.73043        0.37769       -6.84755
N          3.32811       -0.37033       -7.50316
C          1.33352        0.78646       -4.91178
N          0.80112        0.37002       -3.96896
C          2.32288        3.20727       -7.71265
C          1.42781        4.22428       -8.06947
C          1.67916        5.14818       -9.06536
C          2.93307        5.11439       -9.67808
C          3.85147        4.06734       -9.36999
C          3.52360        3.09382       -8.39882
C          5.10743        4.07272       -9.99577
C          5.47893        5.11622      -10.84818
C          4.59649        6.16215      -11.10232
C          3.32305        6.15147      -10.53628
C          0.37633        4.35375       -7.04562
O         -0.66455        4.96781       -7.14585
C          0.91563        3.59748       -5.86687
C          0.85810        4.00345       -4.58376
C          0.22088        5.20790       -4.12990
S         -0.53758        5.19716       -2.58975
C         -1.13147        6.82856       -2.71884
C         -0.85646        7.29833       -4.00199
C          0.14631        6.49307       -4.65004
C          0.90913        7.01574       -5.77673
O          2.00711        6.57984       -6.10543
C          0.28355        8.13563       -6.52097
C          0.79823        8.49213       -7.77627
C          0.14230        9.44351       -8.55767
C         -1.01141       10.06118       -8.07842
C         -1.49095        9.75602       -6.80293
C         -0.84175        8.79505       -6.01454
C         -1.36245        8.50856       -4.64861
O         -2.19786        9.26000       -4.15969
C         -1.68313        7.44820       -1.52273
C         -1.42056        8.77009       -1.34238
C         -1.46355        9.38364       -0.02446
C         -1.00952       10.59099        0.43687
C         -0.43464       11.83202       -0.28258
C         -0.29927       11.64554       -1.82368
N          0.31410       12.73785       -2.58558
C         -1.28409       13.10822        0.02465
N         -0.78806       14.34742       -0.60152
C         -0.97801       10.39455        1.90756
C         -0.29684       11.02567        2.88323
C         -0.16827       10.43535        4.30409
C         -1.12651        9.27361        4.56797
C         -1.82978        8.67038        3.59791
C         -1.63520        9.13685        2.25602
C         -1.88216        8.51847        1.09811
C         -2.37733        7.18690        0.85299
C         -2.27631        6.69089       -0.39455
C         -0.24537       11.52297        5.35032
C         -0.66786       11.38435        6.61857
C         -0.69768       12.50167        7.48797
S         -2.10803       13.47449        7.49619
C         -1.52048       14.46438        8.76373
C         -0.22869       14.11447        9.11487
C          0.23511       12.95658        8.40431
C          1.54128       12.36343        8.66787
O          1.97111       11.37177        8.08747
C          2.37201       13.04233        9.70041
C          3.63859       12.51364        9.99649
C          4.46066       13.13564       10.93791
C          4.02794       14.28936       11.58821
C          2.76740       14.81849       11.30722
C          1.92943       14.19509       10.36950
C          0.58522       14.78475       10.11712
O          0.22099       15.78530       10.72511
C         -2.38425       15.47386        9.27217
C         -3.21976       15.25140       10.29813
C         -4.28849       16.12051       10.84280
C         -4.31061       17.47696       10.86815
C         -5.34501       18.22437       11.50099
N         -6.19085       18.83359       12.01006
C         -3.27565       18.27199       10.30461
N         -2.45104       18.93916        9.81580
C         -5.26515       15.21292       11.51262
C         -4.68935       13.93855       11.61618
C         -3.36990       13.91356       10.97001
O         -2.60130       12.97364       10.99968
C         -5.33176       12.84777       12.18248
C         -6.63171       13.02503       12.66373
C         -7.25320       14.30074       12.56009
C         -6.56338       15.38514       11.97604
C         -8.56206       14.45851       13.03867
C         -9.25036       13.38472       13.60572
C         -8.64154       12.13671       13.70100
C         -7.33968       11.95649       13.23304
H          0.96763        5.94433       -9.25531
H          4.26203        2.34427       -8.12687
H          5.82693        3.28040       -9.79901
H          6.46877        5.12293      -11.29809
H          4.90207        6.99216      -11.73459
H          2.65353        6.98524      -10.73732
H          1.37916        3.43014       -3.81922
H          1.69792        8.01452       -8.15838
H          0.52353        9.69497       -9.54510
H         -1.53716       10.78686       -8.69546
H         -2.38394       10.25770       -6.43334
H         -0.97573        9.33192       -2.13800
H          0.57937       11.99648        0.10888
H         -1.29800       11.47951       -2.24687
H          0.33762       10.78109       -2.02323
H         -0.18905       13.59609       -2.31554
H          0.10300       12.60140       -3.57362
H         -1.32742       13.28228        1.10455
H         -2.31121       12.95551       -0.32473
H          0.17767       14.51515       -0.31290
H         -1.33612       15.14615       -0.28635
H          0.31113       11.89513        2.65465
H          0.84873       10.02182        4.36978
H         -1.21078        8.87388        5.57350
H         -2.48950        7.83579        3.80438
H         -2.77666        6.59350        1.66613
H         -2.61800        5.67986       -0.59311
H          0.14238       12.49262        5.04264
H         -1.00389       10.43838        7.02911
H          3.99242       11.61405        9.49422
H          5.44147       12.72024       11.16046
H          4.67164       14.77734       12.31728
H          2.44193       15.72111       11.82268
H         -2.36654       16.41007        8.72439
H         -4.83200       11.88372       12.22119
H         -7.08456       16.33222       11.88184
H         -9.06132       15.42387       12.97540
H        -10.26432       13.52437       13.97225
H         -9.18115       11.30086       14.13916
H         -6.88439       10.97128       13.31374
