106

C         -3.75086      -15.13090        4.59262
S         -3.21143      -14.03928        3.41972
C         -3.16875      -12.70363        4.52138
C         -3.58284      -13.12070        5.79501
C         -3.90509      -14.55122        5.83258
C         -4.34023      -15.30800        7.05515
F         -4.57665      -16.61815        6.78698
F         -3.39541      -15.27312        8.02503
F         -5.48024      -14.80416        7.58283
C         -3.70011      -12.26802        7.03183
F         -3.36351      -10.96939        6.84677
F         -4.96423      -12.28150        7.52263
F         -2.89379      -12.73511        8.01904
C         -2.70646      -11.40960        4.08227
C         -2.66872      -11.02449        2.79076
C         -2.14514       -9.73678        2.28270
C         -1.19601       -9.72602        1.23713
C         -0.70467      -10.89038        0.47092
O         -1.13909      -12.02288        0.55502
S          0.52550      -10.44498       -0.68423
C          0.45833       -8.77511       -0.19446
O          1.31380       -7.96665       -0.49832
C         -0.64922       -8.53314        0.74818
C         -1.10416       -7.27741        1.17810
C         -2.01133       -7.28072        2.24107
C         -2.54299       -8.47216        2.76283
C         -3.59606       -8.19081        3.75644
O         -4.31654       -9.01945        4.27755
S         -3.76241       -6.47987        4.06917
C         -2.48596       -6.08852        2.95214
O         -2.00426       -4.97682        2.85203
C         -0.76337       -6.06064        0.40807
C         -1.54471       -5.78847       -0.67466
C         -1.05168       -4.86565       -1.68571
C         -1.51987       -4.54534       -2.92347
C         -2.82125       -4.85984       -3.63764
C         -3.08268       -6.36814       -3.87119
N         -2.04590       -7.03667       -4.65285
C         -4.05713       -4.25249       -2.91723
N         -4.06699       -2.79166       -2.90990
C         -0.39252       -3.85419       -3.56780
C         -0.13476       -3.59461       -4.86204
C          1.22815       -3.07938       -5.31856
C          2.15327       -2.66596       -4.17692
C          1.87719       -2.90745       -2.88436
C          0.66167       -3.61279       -2.58735
C          0.27207       -4.23624       -1.46860
C          0.95502       -4.39713       -0.20914
C          0.45077       -5.27303        0.68038
C          1.07337       -1.99258       -6.35730
C          1.06007       -0.67712       -6.09532
C          0.94970        0.32292       -7.14876
C         -0.27702        0.66444       -7.70931
C         -1.59873        0.24155       -7.22590
O         -1.82061       -0.21621       -6.12087
S         -2.84834        0.66090       -8.36603
C         -1.69586        1.45810       -9.39795
O         -1.91961        1.74759      -10.56340
C         -0.37393        1.57678       -8.76321
C          0.69296        2.42991       -9.12705
C          1.91752        2.10656       -8.50520
C          2.06377        1.00965       -7.63684
C          3.46826        0.73890       -7.28917
O          3.87284       -0.23027       -6.67701
S          4.52412        1.96002       -7.94650
C          3.15839        2.88328       -8.50459
O          3.20562        4.07631       -8.75566
C          0.46373        3.66004       -9.95194
S         -0.99808        4.54465       -9.62516
C         -0.79965        5.56407      -10.98342
C          0.55591        5.63936      -11.25600
C          1.20935        4.36761      -10.90353
C          2.52452        3.99417      -11.53572
F          2.94484        2.75212      -11.18176
F          2.41198        3.97263      -12.88927
F          3.51404        4.86978      -11.24709
C          1.26403        6.79178      -11.91066
F          0.45972        7.84781      -12.18607
F          2.23518        7.26829      -11.08807
F          1.86528        6.43710      -13.06872
C         -1.93605        6.23781      -11.51137
C         -2.02034        6.55083      -12.81231
H         -3.92343      -16.16647        4.32486
H         -2.38501      -10.71365        4.85274
H         -2.99779      -11.70672        2.00883
H         -2.43191       -6.36242       -0.90800
H         -2.79790       -4.39459       -4.63295
H         -4.03253       -6.48411       -4.40834
H         -3.20056       -6.89623       -2.92075
H         -1.90194       -6.53508       -5.52897
H         -2.35475       -7.97344       -4.90742
H         -4.12564       -4.62039       -1.88765
H         -4.97090       -4.57627       -3.43046
H         -3.20982       -2.43923       -2.48177
H         -4.83789       -2.44912       -2.33866
H         -0.85262       -3.84976       -5.63272
H          1.73474       -3.91629       -5.82082
H          3.09265       -2.18514       -4.44062
H          2.55523       -2.62148       -2.09007
H          1.86293       -3.84227       -0.00882
H          0.96149       -5.43166        1.62493
H          0.99923       -2.35319       -7.38128
H          1.12051       -0.30596       -5.07502
H         -2.80264        6.40737      -10.87577
H         -1.22762        6.35322      -13.52756
H         -2.92255        7.00749      -13.20938
