122

C         -2.74807       10.01614       -0.86215
S         -1.81560        9.81990        0.55041
C         -0.85497        8.59047       -0.16813
C         -1.24290        8.34148       -1.47670
C         -2.36134        9.16124       -1.87181
C         -3.04117        9.04129       -3.20437
C         -2.28092        8.15860       -4.19776
C         -1.62215        6.94137       -3.53458
C         -0.63521        7.33011       -2.41826
C          0.68516        7.84717       -2.97417
O          0.84325        8.32688       -4.09324
C          0.14748        7.95786        0.61335
C          1.38198        8.47565        0.67192
C          2.50337        7.87329        1.42521
N          3.74363        7.97492        1.00667
C          4.44867        7.29316        1.94565
C          3.56632        6.78684        2.96596
C          4.37265        6.07480        3.98895
O          4.00773        5.51873        5.00224
C          5.74807        6.19698        3.44939
C          5.70250        6.94640        2.21858
N          6.95375        7.07173        1.70697
C          7.68735        6.43629        2.57494
C          6.99253        5.83986        3.73669
C          2.30740        7.11696        2.70317
C          1.11087        6.89647        3.44421
C          0.74676        5.69283        3.89399
C         -0.47504        5.45078        4.64129
C         -0.33356        4.88728        5.86468
C         -1.49565        4.52046        6.64609
C         -1.62836        3.92119        7.86114
C         -0.59688        3.42672        8.87643
C          0.73640        2.94222        8.23587
N          1.70720        2.33451        9.15379
C         -0.36775        4.53156        9.94656
N          0.59561        4.17925       10.99905
C         -3.08474        3.74608        8.01751
C         -3.81489        3.07597        8.92349
C         -5.32164        2.87296        8.74852
C         -5.94665        3.74630        7.66334
C         -5.21467        4.44003        6.77537
C         -3.77991        4.36354        6.88794
C         -2.83099        4.80961        6.06540
C         -2.94384        5.46549        4.78571
C         -1.81633        5.75809        4.11386
C         -5.58213        1.40473        8.49072
C         -5.64996        0.82486        7.27866
C         -5.83238       -0.63566        7.18447
N         -5.45622       -1.50517        8.09190
C         -5.78851       -2.69855        7.53781
C         -6.39444       -2.49758        6.24716
C         -6.75293       -3.81386        5.66747
O         -7.28808       -4.06076        4.61004
C         -6.29084       -4.75396        6.71729
C         -5.71354       -3.99861        7.80191
N         -5.26863       -4.84033        8.76944
C         -5.57353       -6.01543        8.29260
C         -6.24642       -6.05431        6.97584
C         -6.44379       -1.20650        5.94671
C         -6.88737       -0.58081        4.74410
C         -7.87748        0.31909        4.65449
C         -8.36421        0.83309        3.40859
S         -9.11076        2.38194        3.43575
C         -9.55176        2.34200        1.77572
C         -9.18807        1.12693        1.20525
C         -8.41289        0.30110        2.12118
C         -7.85382       -1.03050        1.68038
C         -7.84795       -1.20748        0.16483
C         -9.19364       -0.82920       -0.43108
C         -9.51128        0.65733       -0.20545
C        -10.98092        0.83727       -0.52790
O        -11.39775        1.06504       -1.66106
C        -10.24889        3.47819        1.26360
C        -10.13346        3.90612        0.00049
H         -3.55470       10.73677       -0.88009
H         -3.18451       10.03606       -3.64317
H         -4.03908        8.61542       -3.04123
H         -1.52035        8.76215       -4.70497
H         -2.97026        7.82081       -4.98076
H         -1.11393        6.33959       -4.29737
H         -2.41225        6.30934       -3.10690
H         -0.38937        6.41338       -1.86619
H          1.54251        7.77870       -2.28274
H         -0.13190        7.04114        1.12097
H          1.65528        9.35441        0.09299
H          8.77885        6.31989        2.49152
H          7.40670        5.28629        4.55673
H          0.47710        7.76473        3.62494
H          1.37711        4.81654        3.73816
H          0.66092        4.69486        6.23411
H         -1.01931        2.54832        9.38421
H          1.27062        3.78581        7.80135
H          0.52523        2.22100        7.43869
H          1.91745        3.05815        9.85779
H          1.25718        1.59666        9.68876
H         -1.31897        4.77184       10.43642
H         -0.01579        5.44881        9.46018
H          0.24576        3.38624       11.53579
H          0.67950        4.95611       11.65496
H         -3.34819        2.57498        9.76472
H         -5.81413        3.15018        9.68893
H         -7.02972        3.77387        7.60137
H         -5.67502        5.03651        5.99672
H         -3.92092        5.69457        4.37578
H         -1.87752        6.23159        3.13872
H         -5.66175        0.78285        9.37809
H         -5.54124        1.38339        6.35652
H         -5.35727       -6.96272        8.80887
H         -6.58413       -6.90524        6.41967
H         -6.36271       -0.93882        3.87156
H         -8.36757        0.66542        5.56345
H         -8.43618       -1.83204        2.15067
H         -6.81358       -1.13537        1.99174
H         -7.60449       -2.24806       -0.07753
H         -7.06077       -0.58370       -0.27826
H         -9.97466       -1.46592        0.00604
H         -9.18996       -1.04150       -1.50750
H         -8.91929        1.25341       -0.91010
H        -11.68779        0.64787        0.30025
H        -10.88332        4.04534        1.94302
H         -9.49460        3.43721       -0.73858
H        -10.69209        4.77598       -0.33381
