144

C         -9.77745       10.45697       -5.25640
C         -9.18375       11.67080       -5.22539
C         -9.79705       12.80532       -4.62837
N        -10.29534       13.73177       -4.12983
C         -8.00517       11.95787       -5.98413
N         -7.12688       12.27104       -6.65473
C        -11.21114       10.22361       -4.98809
C        -11.67286        9.29671       -5.93709
C        -13.01294        8.98142       -6.07257
C        -13.91675        9.55873       -5.16492
C        -13.43554       10.38522       -4.10550
C        -12.07559       10.72393       -4.03187
C        -14.33380       10.86707       -3.14453
C        -15.69711       10.59663       -3.25014
C        -16.17831        9.84724       -4.32038
C        -15.29451        9.32198       -5.26561
C        -10.51622        8.68072       -6.63688
O        -10.54916        7.83037       -7.49911
C         -9.30584        9.27102       -5.96153
C         -8.19353        8.53446       -5.80544
C         -7.22540        8.78780       -4.78675
S         -7.55574        8.22567       -3.20797
C         -5.99584        8.62992       -2.60023
C         -5.28401        9.34268       -3.55854
C         -5.93685        9.28933       -4.84879
C         -5.19627        9.66920       -6.09806
C         -3.66835        9.53859       -5.90751
C         -3.24640        8.06023       -5.86298
O         -3.89969        7.22989       -6.51438
C         -1.96087        7.63702       -5.14883
F         -1.35813        8.59390       -4.39480
F         -2.17772        6.59581       -4.29694
F         -1.00797        7.22157       -6.02941
C         -3.26785       10.40056       -4.70181
C         -3.90882        9.94502       -3.38066
C         -5.58457        8.24772       -1.28436
C         -6.32940        7.46609       -0.48249
C         -5.94819        7.13961        0.87546
C         -5.86948        8.16030        1.77113
C         -5.31525        7.91560        3.08373
C         -4.96635        8.76240        4.09767
C         -5.25110       10.26558        4.26742
C         -5.42048       10.75421        5.74683
N         -5.65700       12.19974        5.90050
C         -4.29265       11.20563        3.48291
N         -2.90805       11.24168        3.95601
C         -4.25213        7.87693        5.02912
C         -3.38673        8.12936        6.01888
C         -2.70211        7.03494        6.82060
C         -3.07234        5.61805        6.39444
C         -3.88174        5.35856        5.35677
C         -4.40024        6.48060        4.62809
C         -4.97695        6.51361        3.42659
C         -5.19887        5.43468        2.49830
C         -5.64259        5.74911        1.26903
C         -2.94889        7.19951        8.29330
C         -3.69031        8.14424        8.89634
C         -3.87812        8.13900       10.30152
S         -4.07793        9.62963       11.11119
C         -4.28342        8.88773       12.65244
C         -4.16804        7.50357       12.54133
C         -3.98538        7.07714       11.17961
C         -3.97804        5.61697       10.81865
C         -4.83044        4.79643       11.77975
C         -6.32436        5.09018       11.58134
O         -6.90214        5.97463       12.22159
C         -7.03872        4.27744       10.50992
F         -6.50242        3.03370       10.35739
F         -8.35562        4.08348       10.79456
F         -6.98569        4.86450        9.28453
C         -4.35414        5.02929       13.21538
C         -4.32847        6.49570       13.64970
C         -4.56694        9.76108       13.75000
C         -4.70500        9.32530       15.00795
C         -5.04698       10.16199       16.12973
C         -5.25262        9.73368       17.38588
C         -5.74337       10.50497       18.54458
C         -5.49845       11.81164       18.80400
C         -5.94424       12.45417       19.99004
N         -6.30498       12.98930       20.95659
C         -4.71664       12.63428       17.94015
N         -4.08544       13.31083       17.23129
C         -6.40347        9.52184       19.45314
C         -6.06817        8.23189       19.02118
C         -5.25103        8.28672       17.80585
O         -4.70849        7.33025       17.29262
C         -6.52421        7.07151       19.62301
C         -7.38557        7.19573       20.71288
C         -7.75877        8.48895       21.17738
C         -7.26207        9.64743       20.53668
C         -8.63598        8.58263       22.26833
C         -9.13979        7.43330       22.88247
C         -8.77610        6.17283       22.41702
C         -7.90200        6.05397       21.33848
H        -13.34032        8.29059       -6.84485
H        -11.71607       11.36446       -3.23134
H        -13.98087       11.46301       -2.30460
H        -16.38458       10.98253       -2.50155
H        -17.24555        9.66411       -4.41596
H        -15.69493        8.73099       -6.08659
H         -8.10970        7.57637       -6.31598
H         -5.40721       10.70900       -6.34230
H         -5.55586        9.06287       -6.93599
H         -3.19482        9.95555       -6.80469
H         -3.56518       11.43928       -4.90142
H         -2.18182       10.45826       -4.59766
H         -3.96281       10.80775       -2.70345
H         -3.25646        9.20725       -2.90104
H         -4.61353        8.59349       -0.92854
H         -7.27701        7.03738       -0.79132
H         -6.11891        9.17569        1.48942
H         -6.24237       10.42683        3.81343
H         -4.53277       10.54022        6.33980
H         -6.25561       10.22398        6.21721
H         -4.82952       12.71248        5.59072
H         -5.73804       12.42339        6.89395
H         -4.69063       12.22998        3.52345
H         -4.29647       10.95434        2.41820
H         -2.82070       10.77219        4.85191
H         -2.61160       12.20606        4.10224
H         -3.09734        9.13533        6.27854
H         -1.62259        7.13855        6.65787
H         -2.62866        4.78312        6.93008
H         -4.11856        4.34641        5.04937
H         -4.95489        4.41411        2.77175
H         -5.77083        4.96200        0.52860
H         -2.44070        6.45281        8.89621
H         -4.16989        8.93998        8.33365
H         -2.93811        5.26451       10.86333
H         -4.34044        5.45692        9.79853
H         -4.67720        3.73311       11.56255
H         -3.33722        4.62517       13.31173
H         -4.97482        4.46408       13.92043
H         -3.51130        6.62448       14.37072
H         -5.27649        6.68990       14.16179
H         -4.69762       10.82059       13.53837
H         -4.57695        8.28379       15.24256
H         -5.19149       11.20508       15.86503
H         -6.23590        6.10230       19.22539
H         -7.59166       10.61770       20.89513
H         -8.94076        9.55472       22.65142
H         -9.82123        7.52280       23.72486
H         -9.17453        5.27960       22.89143
H         -7.63400        5.06015       20.98512
