105

C         -0.44931       -0.87446       -1.29967
C         -1.52132       -1.22641       -0.31576
O         -2.12065       -2.27935       -0.25131
C         -1.61607       -0.05733        0.59426
C         -0.79188        0.98335        0.10592
C         -0.23679        0.56990       -1.21109
C          0.12040        1.39957       -2.22079
C          0.17591        0.94897       -3.57453
N          0.17143        0.61694       -4.68601
C          0.37653        2.78743       -2.02977
N          0.62058        3.90881       -1.86223
C         -0.66073        2.14604        0.84257
C         -1.39051        2.27763        2.02909
C         -2.23333        1.25182        2.50473
C         -2.34779        0.03694        1.79084
C         -3.16985       -0.98365        2.31946
C         -3.87469       -0.79553        3.50938
C         -3.77404        0.41076        4.19122
C         -2.95628        1.42433        3.69463
C          0.26890       -1.90143       -1.77958
C          1.58042       -1.80994       -2.32724
C          2.62618       -0.91705       -2.06538
C          3.77101       -1.21722       -2.83067
C          3.60007       -2.38132       -3.53863
S          2.09733       -3.06735       -3.42190
C          4.80098       -2.68962       -4.20036
C          5.72830       -1.70872       -3.93918
C          5.12151       -0.70003       -3.06787
C          5.65578        0.45106       -2.61575
C          6.97996        0.84646       -2.94935
N          8.06199        1.16984       -3.21200
C          4.91227        1.33017       -1.78861
N          4.27056        2.02191       -1.10465
C          6.94695       -1.97056       -4.60226
C          6.90086       -3.18367       -5.30398
S          5.31978       -3.91188       -5.18217
C          7.92966       -3.82413       -6.15349
C          8.76415       -3.09188       -7.02300
C          9.73322       -3.73451       -7.88334
N         10.50658       -2.96417       -8.68149
C         10.32410       -1.62792       -8.69273
C          9.40261       -1.02572       -7.87771
N          8.62549       -1.74479       -7.04156
F          9.25541        0.30603       -7.88698
F         11.06679       -0.89828       -9.53618
C          9.89743       -5.14623       -7.92800
C          9.06522       -5.91284       -7.06300
C          8.08689       -5.24231       -6.14322
N          7.44225       -6.12732       -5.36097
S          7.90781       -7.64140       -5.81229
N          9.01944       -7.25438       -6.96582
C         10.85042       -5.87255       -8.80760
C         11.53424       -7.08256       -8.59790
C         12.33223       -7.43489       -9.70853
C         12.23731       -6.49033      -10.70250
S         11.19301       -5.25025      -10.40206
C         13.06197       -6.86120      -11.77761
C         13.69087       -8.04244      -11.46295
C         13.22138       -8.50834      -10.15616
C         13.47358       -9.70107       -9.57672
C         14.29438      -10.67673      -10.21384
N         14.95207      -11.44161      -10.78777
C         12.88307      -10.06058       -8.33586
N         12.40692      -10.37622       -7.32265
C         14.58172       -8.43033      -12.47900
C         14.46146       -7.60261      -13.59929
S         13.42322       -6.24371      -13.27232
C         15.07016       -7.69544      -14.88055
C         15.34771       -8.85391      -15.49248
C         16.34913       -8.82140      -16.60687
O         16.62499       -7.86221      -17.29629
C         16.97891      -10.16770      -16.60730
C         16.32090      -10.98433      -15.66222
C         15.12332      -10.26099      -15.16320
C         13.96381      -10.83654      -14.76945
C         12.75504      -10.09638      -14.59482
N         11.75547       -9.52805      -14.44666
C         13.82874      -12.23319      -14.59706
N         13.71040      -13.38550      -14.45104
C         16.84348      -12.22707      -15.34854
C         17.96953      -12.67415      -16.04523
C         18.58431      -11.89300      -17.04755
C         18.09628      -10.59598      -17.33789
C         18.74709       -9.83093      -18.32992
C         19.83529      -10.34584      -19.03327
C         20.30241      -11.62411      -18.75038
C         19.68622      -12.38835      -17.75899
H         -0.01585        2.96743        0.54777
H         -1.29349        3.20553        2.59279
H         -3.27403       -1.93987        1.81018
H         -4.50355       -1.59289        3.89858
H         -4.32841        0.56264        5.11404
H         -2.88944        2.35950        4.24836
H         -0.12069       -2.91262       -1.64348
H          2.54871       -0.11504       -1.34378
H          7.82056       -1.32848       -4.60032
H         11.43532       -7.66651       -7.68936
H         15.24361       -9.28617      -12.45118
H         15.39208       -6.76065      -15.34260
H         16.42242      -12.86400      -14.57655
H         18.36917      -13.65876      -15.80228
H         18.40273       -8.82881      -18.57924
H         20.31271       -9.74739      -19.80528
H         21.14705      -12.02869      -19.30176
H         20.07304      -13.38456      -17.55244
