94

C         -0.05849        3.99956        4.59298
C          1.14788        4.08646        3.98301
C          2.36957        4.18403        4.70824
N          3.36485        4.26339        5.29912
C          1.28907        4.01964        2.56464
N          1.38829        3.97746        1.40981
C         -0.32068        3.93020        6.06310
C         -1.60245        3.40490        6.25228
C         -2.21019        3.24860        7.49036
C         -1.48019        3.64855        8.62925
C         -0.18802        4.16550        8.45638
C          0.41113        4.32227        7.17795
S          0.52282        4.57312        9.97682
C         -0.86480        4.09687       10.84371
C         -1.85769        3.63542       10.01351
C         -2.24408        3.12318        4.96308
O         -3.24770        2.46236        4.80235
C         -1.36664        3.77729        3.93830
C         -1.82992        4.25563        2.77223
C         -3.19088        4.13872        2.37703
C         -3.80615        3.11797        1.65503
C         -5.14983        3.43604        1.37339
C         -5.52772        4.61988        1.96634
S         -4.31053        5.41569        2.76852
C         -6.89132        4.85137        1.69010
C         -7.36592        3.83052        0.89833
C         -6.28327        2.88160        0.63456
C         -6.30206        1.78625       -0.14911
C         -5.14260        0.98372       -0.34095
N         -4.19525        0.33563       -0.50646
C         -7.46611        1.39788       -0.86631
N         -8.40716        1.08476       -1.46810
C         -8.73030        4.00862        0.58723
C         -9.24736        5.16161        1.18681
S         -8.01747        5.99757        2.09905
C        -10.60948        5.70085        1.15782
C        -10.94009        7.05932        1.24065
N        -12.18729        7.62723        1.22386
C        -13.31213        6.85849        1.11286
C        -13.15012        5.45083        1.02826
C        -11.75118        4.86312        1.04767
N        -11.76239        3.51958        0.96183
S        -13.34083        3.04249        0.84450
N        -14.10491        4.50768        0.92385
C        -14.60967        7.52838        1.10052
C        -15.85988        7.06891        1.52527
C        -16.86540        8.03517        1.30857
C        -16.34858        9.17243        0.73128
S        -14.71106        9.15542        0.48145
C        -17.39349       10.08638        0.50026
C        -18.56621        9.55225        0.98120
C        -18.31114        8.19853        1.47560
C        -19.21423        7.28513        1.88148
C        -18.82691        5.97203        2.26389
N        -18.51168        4.90144        2.58088
C        -20.60624        7.57647        1.91792
N        -21.74036        7.82185        1.96368
C        -19.64885       10.44067        0.80562
C        -19.27059       11.52211        0.01287
S        -17.55229       11.54814       -0.26752
C        -20.03903       12.60732       -0.45857
C        -20.73043       12.68645       -1.60474
C        -21.06860       11.87227       -2.79933
C        -20.91559       10.54449       -3.03921
C        -21.21003        9.93689       -4.29858
N        -21.42681        9.41433       -5.30911
C        -20.48455        9.56130       -2.10907
N        -20.19895        8.63492       -1.47024
C        -21.73589       12.82177       -3.77373
C        -21.80186       14.09161       -3.20349
C        -21.23074       14.08544       -1.86097
O        -21.17328       15.05292       -1.12782
C        -22.36901       15.21073       -3.81098
C        -22.95790       15.04179       -5.08083
C        -22.93093       13.76963       -5.66056
C        -22.32115       12.65470       -5.02750
S        -23.73139       13.76057       -7.18973
C        -24.10558       15.41902       -7.08809
C        -23.63147       15.98422       -5.92785
H         -3.22240        2.86146        7.56727
H          1.40031        4.76226        7.11600
H         -0.89142        4.17917       11.92190
H         -2.82058        3.29584       10.37701
H         -1.20508        4.84006        2.10447
H         -3.27536        2.22333        1.35384
H         -9.33202        3.34654       -0.02483
H        -10.15253        7.80939        1.31879
H        -15.99722        6.08376        1.95491
H        -20.67291       10.27874        1.11982
H        -19.97586       13.48919        0.18352
H        -22.37419       16.17356       -3.30712
H        -22.36747       11.71048       -5.55188
H        -24.65630       15.90202       -7.88378
H        -23.77104       17.03051       -5.68377
