89

C         -3.30973        2.81672        4.73352
C         -2.61113        1.69319        5.02992
C         -1.84541        1.55171        6.21919
N         -1.21450        1.43672        7.19185
C         -2.62200        0.54198        4.19407
N         -2.61972       -0.39566        3.50430
C         -3.45010        4.03416        5.59344
C         -4.51947        4.79136        5.10845
C         -4.91886        6.01445        5.62913
C         -4.18345        6.53275        6.71380
C         -3.10720        5.78500        7.21696
C         -2.72123        4.53211        6.66874
S         -2.35335        6.60711        8.53904
C         -3.41709        7.91260        8.41981
C         -4.33804        7.77420        7.41747
Br        -3.34281        9.40638        9.54694
C         -5.10725        4.16986        3.91878
O         -6.13637        4.53054        3.38900
C         -4.18387        3.04413        3.55552
C         -4.07242        2.56263        2.30590
C         -4.82108        3.06396        1.20133
C         -6.06525        2.72200        0.72011
C         -6.41137        3.41865       -0.48818
O         -7.56686        3.25345       -1.19067
C         -8.22819        2.00585       -0.93780
C         -8.62762        1.88821        0.52408
S         -7.13115        1.53853        1.49154
C         -5.46083        4.36418       -0.87341
S         -4.10791        4.25892        0.20370
C         -5.41303        5.32487       -2.02689
C         -5.89248        5.03749       -3.32511
C         -5.77565        5.96676       -4.44461
N         -6.14753        5.55001       -5.67085
C         -6.76471        4.35733       -5.80466
C         -6.94051        3.51892       -4.73894
N         -6.45850        3.82874       -3.52309
F         -7.59147        2.35624       -4.88373
F         -7.20820        4.00926       -7.02094
C         -5.27855        7.28980       -4.31636
C         -4.82425        7.62868       -3.00188
C         -4.84906        6.62734       -1.86374
N         -4.28692        7.12972       -0.74799
S         -3.82584        8.67751       -1.04738
N         -4.34520        8.81929       -2.59720
C         -5.18356        8.30299       -5.43433
C         -5.93883        8.54709       -6.58261
C         -5.41025        9.60586       -7.38759
O         -5.84073        9.93926       -8.63147
C         -6.14837        8.76713       -9.38425
C         -7.44303        8.14054       -8.89329
S         -7.43855        7.76521       -7.10791
C         -4.44669       10.35984       -6.75665
S         -3.84223        9.43266       -5.44605
C         -3.83122       11.60283       -7.11166
C         -4.42783       12.58459       -7.81083
C         -5.77341       12.77130       -8.37237
C         -6.95620       12.63031       -7.72696
C         -8.21516       12.85558       -8.35396
N         -9.23693       13.01794       -8.88048
C         -7.01477       12.37197       -6.32540
N         -7.08213       12.24444       -5.17633
C         -5.59972       13.50603       -9.65140
C         -4.34120       14.11421       -9.61853
C         -3.56173       13.62458       -8.45987
O         -2.43590       13.95664       -8.15554
C         -3.91094       15.02285      -10.57581
C         -4.79738       15.32826      -11.63716
C         -6.02462       14.64943      -11.71214
C         -6.43682       13.70977      -10.73964
S         -6.92790       15.13699      -13.10123
C         -5.75490       16.26525      -13.54334
C         -4.66494       16.27143      -12.71416
Br        -5.93377       17.39606      -15.02549
H         -5.74695        6.56118        5.18461
H         -1.85657        4.02872        7.08616
H         -5.09430        8.51325        7.18055
H         -3.31497        1.83457        2.03844
H         -7.62317        1.15524       -1.28706
H         -9.13415        2.00759       -1.55376
H         -9.34608        1.07902        0.67823
H         -9.06671        2.82699        0.87853
H         -5.30330        8.06460       -9.36942
H         -6.26726        9.08416      -10.42648
H         -7.64139        7.22047       -9.45151
H         -8.27244        8.83216       -9.07054
H         -2.77752       11.71759       -6.85304
H         -2.93683       15.49660      -10.49287
H         -7.39314       13.21093      -10.85346
H         -3.81137       16.92521      -12.84550
