80

C         -8.11020       20.92078       -0.29605
O         -9.17922       21.22643       -1.07757
C         -8.82228       22.29957       -1.82819
C         -7.53404       22.68526       -1.53453
C         -7.06867       21.79174       -0.53459
C         -5.78095       21.79385        0.08332
C         -5.33503       20.88357        0.96475
C         -3.99943       20.89888        1.52471
C         -3.43057       19.77650        1.98796
C         -2.07189       19.69263        2.49360
C         -1.30520       18.59017        2.44038
C          0.03037       18.47078        2.97769
C          0.57272       17.25188        2.82005
C         -0.29082       16.30561        2.13370
S         -1.78858       17.10668        1.66026
C         -0.05947       14.99872        1.90078
C          1.10464       14.22317        2.27946
C          0.98036       12.90709        2.04427
C         -0.29869       12.52869        1.47045
S         -1.21983       13.95458        1.08925
C         -0.67554       11.24951        1.27081
C         -1.92913       10.79018        0.77343
S         -3.48953       11.53706        0.93524
C         -4.34329       10.28255        0.08511
C         -3.42856        9.33207       -0.22361
C         -2.13211        9.60442        0.15744
O         -1.18887        8.65914       -0.12734
C         -1.99881        7.71555       -0.73265
N         -1.33210        6.52317       -1.16223
O         -2.03166        5.67361       -1.73037
O         -0.12153        6.41418       -0.92546
C         -3.35129        8.06475       -0.82921
C         -5.74273       10.38571       -0.14184
C         -6.65529        9.89125        0.70746
C         -8.08338        9.86491        0.46646
C         -8.72559        8.96077        1.22602
C         -7.81677        8.20455        2.07456
S         -6.28596        9.06641        2.19943
C         -7.98111        6.93728        2.49629
C         -9.12598        6.08157        2.24713
C         -8.81697        4.77482        2.27446
C         -7.40972        4.53245        2.51795
S         -6.66697        5.97118        3.16938
C         -6.78674        3.39197        2.18413
C         -5.37459        3.17479        2.12179
S         -4.32912        4.26428        1.22803
C         -3.04230        3.21614        1.37082
C         -3.32707        2.08831        2.07931
C         -4.66114        2.04867        2.53559
C         -2.15247        1.25219        2.05683
O         -1.98340        0.17504        2.59814
C         -1.18130        2.01392        1.16817
C         -1.74538        3.19609        0.83912
C          0.10718        1.50910        0.77376
C          0.68172        1.77037       -0.40958
H         -8.24927       20.07242        0.35925
H         -9.57788       22.66272       -2.51090
H         -7.00245       23.50732       -1.99241
H         -5.10112       22.58453       -0.22980
H         -5.97387       20.05588        1.26633
H         -3.44575       21.83351        1.50294
H         -3.99222       18.84394        1.94356
H         -1.67670       20.59616        2.95185
H          0.52934       19.29132        3.47485
H          1.55758       16.99325        3.18246
H          1.98559       14.66260        2.72478
H          1.74723       12.18140        2.28059
H          0.04541       10.47187        1.50905
H         -4.14188        7.46476       -1.25753
H         -6.05866       10.83460       -1.07850
H         -8.56253       10.47243       -0.28903
H         -9.78300        8.75208        1.14563
H        -10.10656        6.45935        1.99458
H         -9.51457        3.98318        2.03855
H         -7.39223        2.56315        1.82358
H         -5.10645        1.21656        3.06732
H         -1.30488        3.96192        0.22149
H          0.60289        0.84521        1.47640
H          0.21167        2.39958       -1.16114
H          1.64435        1.33915       -0.66784
