73

C         12.27912       -4.70084       -7.96070
O         13.01220       -3.98165       -8.85103
C         12.82697       -2.67034       -8.54730
C         11.97677       -2.54030       -7.47217
C         11.61748       -3.85587       -7.09800
C         10.76790       -4.28011       -6.04186
C          9.73255       -3.56817       -5.56856
C          8.91607       -4.04658       -4.47897
C          7.85739       -3.37944       -3.99127
C          7.06213       -3.85331       -2.89262
S          7.40905       -5.37554       -2.12446
C          6.16991       -5.18531       -1.00925
N          5.98775       -6.18731       -0.01491
O          6.06402       -5.80948        1.16131
O          5.75552       -7.33201       -0.40466
C          5.46823       -4.01928       -1.15844
C          5.96811       -3.24689       -2.26330
C          5.39707       -1.99319       -2.68553
C          4.78371       -1.11519       -1.87431
C          4.23532        0.09245       -2.38869
O          2.93150        0.16328       -2.82372
C          2.68425        1.42742       -3.24015
C          3.80469        2.20501       -3.10321
C          4.79863        1.36103       -2.54105
C          6.13415        1.76113       -2.22691
C          6.91512        1.22238       -1.27634
C          8.26281        1.67912       -1.06039
C          9.33356        0.86601       -1.05390
C         10.66862        1.39233       -1.00378
S         10.99949        2.92020       -1.77981
C         12.60550        2.89688       -1.30439
N         13.42850        4.01852       -1.60642
O         13.98207        4.56460       -0.64402
O         13.52936        4.34528       -2.79527
C         12.96593        1.76378       -0.62672
C         11.85097        0.86784       -0.46682
C         11.95582       -0.41337        0.18641
C         12.83706       -0.70715        1.16059
C         12.89605       -2.00674        1.74715
O         12.49047       -3.14630        1.08075
C         12.70648       -4.21597        1.88316
C         13.24466       -3.81949        3.07839
C         13.36107       -2.40739        3.00473
C         13.82853       -1.54003        4.04301
C         14.68745       -1.90489        5.00955
C         15.11263       -1.02760        6.07418
C         15.98495       -1.41081        7.01486
H         12.32285       -5.77469       -8.08051
H         13.35763       -1.96583       -9.16852
H         11.67010       -1.61124       -7.01322
H         10.98333       -5.25576       -5.60706
H          9.47728       -2.60751       -6.00925
H          9.22616       -5.00128       -4.06149
H          7.58922       -2.42404       -4.43571
H          4.62889       -3.74477       -0.52900
H          5.46762       -1.74754       -3.74466
H          4.69479       -1.27830       -0.80633
H          1.68080        1.61235       -3.59746
H          3.88268        3.25333       -3.35668
H          6.53986        2.57371       -2.83181
H          6.56246        0.43039       -0.62541
H          8.36297        2.75810       -0.95814
H          9.20771       -0.20995       -1.14744
H         13.97490        1.57796       -0.27802
H         11.26688       -1.19314       -0.13738
H         13.52842        0.03966        1.53831
H         12.43013       -5.17491        1.46701
H         13.49293       -4.47062        3.90456
H         13.43763       -0.52469        4.04687
H         15.10220       -2.91088        5.01502
H         14.69769       -0.02306        6.11329
H         16.42680       -2.40277        7.02319
H         16.28010       -0.73010        7.80733
