112

C          0.95579       -1.86791       -7.84008
S          1.33960       -3.54526       -7.77024
C         -0.14045       -3.95299       -6.96405
C         -0.88826       -2.80647       -6.76480
C         -0.25780       -1.61059       -7.25093
C         -0.79927       -0.32826       -7.14531
C         -2.03372       -0.31673       -6.44690
O         -2.59411        0.94801       -6.38357
C         -3.20645        1.32491       -5.15386
C         -2.67729       -1.51114       -5.96375
O         -3.91931       -1.40744       -5.38113
C         -4.08909       -2.17925       -4.18485
C         -2.13843       -2.81372       -6.14475
C         -0.39069       -5.31525       -6.60218
C         -0.17010       -5.79622       -5.36714
C         -0.41085       -7.15974       -4.94272
C         -0.06339       -7.40957       -3.66830
C          0.47082       -6.25335       -2.96930
S          0.45190       -4.84956       -4.04610
C          0.97144       -6.18764       -1.71997
C          1.18379       -7.25831       -0.76323
C          1.97315       -6.90739        0.26897
C          2.42209       -5.53191        0.20743
S          1.55615       -4.67328       -1.03387
C          3.43310       -4.99029        0.90682
C          3.90744       -3.62271        0.72039
C          5.16030       -3.17041        0.86874
C          5.56163       -1.82233        0.53777
C          6.88802       -1.63454        0.56443
C          7.63952       -2.82571        0.92294
S          6.52840       -4.13219        1.34709
C          8.97799       -2.96549        0.88505
C          9.94269       -1.96178        0.47420
C         11.19602       -2.42609        0.35960
C         11.31682       -3.83479        0.66009
S          9.80892       -4.46804        1.27017
C         12.42978       -4.56040        0.47124
C         12.56524       -5.99469        0.65555
C         11.90139       -6.94952       -0.05066
O         12.04981       -8.31470        0.21348
C         12.90925       -8.62435        1.20843
C         13.61353       -7.63873        1.92766
C         14.42319       -8.16490        2.90053
S         14.32068       -9.88477        2.91680
C         13.18719       -9.90036        1.62113
O         13.47968       -6.31815        1.66750
C         10.95612       -6.70903       -1.11973
C         11.25924       -6.07953       -2.25998
C         10.30211       -5.81630       -3.32029
C         10.60860       -6.27946       -4.55622
C          9.77551       -5.94852       -5.69220
C          9.89670       -6.24388       -7.01577
C         10.86882       -7.16384       -7.75409
C         12.12795       -6.36588       -8.19123
N         13.12526       -7.15204       -8.93300
C         11.23954       -8.45032       -6.94566
N         12.07735       -9.41859       -7.66683
C          8.85548       -5.41562       -7.66515
C          8.62658       -5.10953       -8.94768
C          7.57427       -4.06399       -9.35829
C          6.68470       -3.59755       -8.21281
C          6.91191       -3.91640       -6.92965
C          8.05230       -4.74614       -6.63801
C          8.61397       -5.05829       -5.46388
C          8.26635       -4.65255       -4.12305
C          9.07737       -5.01906       -3.11237
C          6.72815       -4.56085      -10.50390
C          6.63867       -3.94515      -11.69265
H          1.64867       -1.17615       -8.29734
H         -0.34488        0.57353       -7.53333
H         -2.49671        1.27885       -4.32167
H         -4.11062        0.75842       -4.93274
H         -3.53451        2.36532       -5.25696
H         -4.37234       -1.49895       -3.37948
H         -3.19079       -2.71724       -3.85828
H         -4.89973       -2.89073       -4.34987
H         -2.65204       -3.71486       -5.83728
H         -0.78896       -5.96009       -7.37903
H         -0.83329       -7.90361       -5.60516
H         -0.18004       -8.37699       -3.19948
H          0.78906       -8.25811       -0.89266
H          2.28406       -7.58367        1.05636
H          3.98818       -5.61160        1.60556
H          3.16691       -2.91412        0.35103
H          4.85260       -1.05654        0.25205
H          7.35206       -0.69285        0.30980
H          9.67434       -0.93932        0.25020
H         12.03339       -1.82471        0.03348
H         13.33865       -4.06907        0.13137
H         15.06219       -7.64382        3.59864
H         12.79022      -10.83054        1.24004
H          9.95431       -7.09999       -0.95422
H         12.27631       -5.73464       -2.44852
H         11.52522       -6.82840       -4.70241
H         10.35935       -7.52135       -8.66143
H         12.62402       -5.94730       -7.30865
H         11.82678       -5.52504       -8.82608
H         12.68451       -7.55834       -9.76149
H         13.86934       -6.54188       -9.26778
H         10.33126       -8.96741       -6.61839
H         11.81323       -8.18863       -6.05810
H         12.86400       -8.87838       -8.06091
H         12.51105      -10.04644       -6.98954
H          9.23265       -5.52509       -9.74493
H          8.13067       -3.17575       -9.69180
H          5.84741       -2.94426       -8.45610
H          6.27528       -3.55682       -6.12983
H          7.38034       -4.05323       -3.94760
H          8.85131       -4.70608       -2.09660
H          6.14870       -5.46573      -10.33288
H          7.18294       -3.02869      -11.90475
H          6.00902       -4.34413      -12.48137
