83

C          2.36301      -15.78599       -5.96704
C          3.15343      -14.71100       -5.94905
C          4.30050      -14.51916       -6.79355
C          4.81395      -13.28547       -6.70988
C          4.10309      -12.41217       -5.78929
S          2.87227      -13.33389       -4.91970
C          4.30061      -11.08623       -5.66263
C          5.21148      -10.28960       -6.46385
C          5.17914       -8.97870       -6.19361
C          4.25921       -8.63117       -5.13761
S          3.41818      -10.04886       -4.55326
C          4.06841       -7.37482       -4.70737
C          3.18179       -6.94233       -3.64708
C          3.28171       -7.30029       -2.34014
O          2.37614       -6.85901       -1.37050
C          1.41493       -6.02098       -1.81425
C          1.31850       -5.63210       -3.16548
C          0.27656       -4.77332       -3.40193
S         -0.57827       -4.43529       -1.94446
C          0.45639       -5.45193       -1.01781
O          2.18425       -6.07179       -4.10662
C          4.32944       -8.13818       -1.79667
C          4.08455       -9.31118       -1.18884
C          5.10463      -10.20545       -0.66188
C          4.87550      -11.42375       -0.09827
O          5.92573      -12.21387        0.40104
C          7.16429      -11.69801        0.29917
C          7.40145      -10.44449       -0.28352
C          8.72673      -10.09632       -0.28648
S          9.68271      -11.33422        0.43600
C          8.30293      -12.31819        0.74090
O          6.40529       -9.68155       -0.77646
C          3.57274      -12.04597        0.08244
C          3.38931      -13.25293        0.64369
C          2.09521      -13.86165        0.88282
C          1.83995      -14.76473        1.86564
O          0.56353      -15.29578        2.08304
C         -0.37700      -14.92350        1.18826
C         -0.10523      -14.02086        0.14252
C         -1.18006      -13.80304       -0.67834
S         -2.54887      -14.69261       -0.13185
C         -1.67061      -15.37640        1.18286
O          1.10640      -13.45105       -0.02074
C          2.81270      -15.27914        2.80522
C          3.86331      -16.02020        2.42058
C          4.84506      -16.54141        3.34166
C          5.91659      -17.28296        3.02382
C          6.83019      -17.80204        4.01079
C          7.78499      -18.59241        3.49409
C          7.70681      -18.74744        2.05306
S          6.38748      -17.77111        1.41345
C          8.51135      -19.52981        1.30260
C          9.57256      -20.37769        1.81244
C         10.22651      -21.06445        0.86182
C          9.73552      -20.80447       -0.46371
S          8.40694      -19.67889       -0.45399
C         10.22157      -21.34824       -1.58308
H          2.54974      -16.61238       -6.64425
H          1.49128      -15.85896       -5.32480
H          4.68891      -15.29139       -7.44179
H          5.66903      -12.96726       -7.28715
H          5.82898      -10.70507       -7.24619
H          5.76977       -8.24191       -6.71960
H          4.59294       -6.55925       -5.20108
H         -0.02777       -4.32391       -4.33625
H          0.31226       -5.57208        0.04645
H          5.34469       -7.78256       -1.94799
H          3.04899       -9.63332       -1.12493
H          9.18229       -9.19380       -0.66647
H          8.39919      -13.28258        1.22010
H          2.69559      -11.48615       -0.22354
H          4.25554      -13.81456        0.98018
H         -1.23323      -13.17842       -1.55895
H         -2.14113      -16.06876        1.86539
H          2.62536      -15.05792        3.85252
H          3.99048      -16.24503        1.36205
H          4.67135      -16.30994        4.39007
H          6.73574      -17.58470        5.06336
H          8.53666      -19.06680        4.10645
H          9.81517      -20.46424        2.86002
H         11.04040      -21.74319        1.06223
H         11.04982      -22.04803       -1.56099
H          9.80374      -21.10633       -2.55472
