92

C        -16.28045       10.29377       -5.94784
O        -14.98638       10.70639       -5.81660
C        -14.42869        9.75044       -5.02143
C        -15.41327        8.82046       -4.71089
N        -16.59388        9.18836       -5.30528
C        -15.07711        7.72124       -3.91147
C        -13.75577        7.57574       -3.47191
C        -12.82460        8.54011       -3.81255
C        -13.11916        9.65508       -4.58015
O        -11.62673        8.17134       -3.28914
C        -11.86178        6.95262       -2.66666
N        -13.14180        6.59486       -2.73891
C        -10.80214        6.21774       -2.06462
C        -10.99779        4.97127       -1.61075
C         -9.93631        4.23879       -1.01118
S         -9.15534        2.99401       -1.89519
C         -8.17975        2.56811       -0.56100
C         -8.44299        3.34076        0.55084
C         -9.41793        4.33769        0.27338
C         -9.84042        5.33540        1.29804
C         -9.58991        4.93560        2.77197
C         -8.18324        4.23810        2.95169
O         -8.03908        3.53668        4.20810
C         -8.03665        4.32525        5.38185
C         -7.85585        3.14493        1.90451
N         -9.66591        6.14626        3.65522
C        -10.67576        7.06992        3.67144
S        -12.19047        6.90024        2.87269
C        -12.59366        8.53257        3.09289
C        -11.75576        9.13677        3.99970
C        -10.66638        8.27236        4.37873
C         -9.65786        8.69869        5.42284
C        -10.01296       10.01962        6.15928
C        -10.69865       11.06743        5.24220
O         -9.71001       11.52305        4.29642
C        -10.15446       12.56321        3.43572
C        -11.96357       10.50233        4.57578
N        -10.71387        9.88720        7.45293
C        -11.55006        8.92331        7.94098
C        -11.94626        8.74477        9.21386
C        -12.77460        7.59858        9.27457
C        -12.93329        7.06002        7.93366
O        -13.57187        6.09610        7.57015
N        -12.15072        7.93296        7.19274
C        -13.09963        7.43365       10.53780
O        -12.57856        8.40698       11.41460
C        -11.84202        9.26217       10.58404
O        -11.22623       10.25283       10.93553
C        -13.96705        6.41604       10.97888
O        -15.33461        6.54026       10.84211
C        -15.90970        5.35941       11.15957
C        -14.95704        4.45625       11.55202
C        -13.70495        5.12199       11.44074
C        -12.41187        4.56289       11.68978
C        -12.15835        3.24318       11.74728
C        -10.86196        2.66825       12.02450
C        -10.70123        1.35823       12.23690
H        -16.92037       10.90842       -6.56582
H        -15.82614        6.97978       -3.65617
H        -12.36919       10.39150       -4.83819
H         -9.82870        6.69282       -2.01499
H        -11.97112        4.48911       -1.67851
H         -7.48388        1.74481       -0.64881
H        -10.91174        5.47642        1.14541
H         -9.34835        6.29020        1.07460
H        -10.35727        4.22431        3.10505
H         -7.39684        5.00339        2.89256
H         -7.66394        3.70371        6.20165
H         -9.05213        4.63237        5.64048
H         -7.37319        5.18833        5.28038
H         -8.19599        2.16770        2.27571
H         -6.76377        3.05821        1.82224
H         -8.75824        6.46589        3.97995
H        -13.47318        8.94548        2.61756
H         -8.69706        8.83417        4.90998
H         -9.51297        7.88843        6.14852
H         -9.03705       10.44332        6.43706
H        -10.98390       11.93684        5.84960
H         -9.28112       13.13444        3.10949
H        -10.84777       13.24394        3.93926
H        -10.62577       12.12939        2.54922
H        -12.32852       11.17185        3.78938
H        -12.76231       10.42936        5.32443
H        -10.40399       10.56094        8.15706
H        -12.07040        7.81363        6.19638
H        -16.98301        5.31148       11.04245
H        -15.14552        3.43531       11.84963
H        -11.58962        5.25976       11.85307
H        -12.96344        2.53330       11.57051
H        -10.00001        3.32779       12.06241
H        -11.53608        0.66327       12.22512
H         -9.71887        0.94454       12.45037
