95

C          1.45495        1.50823        1.60840
C          0.43515        2.16542        2.24505
S          0.34087        1.66762        3.90066
C          1.65987        0.60068        3.72724
Cl         2.15987       -0.34281        5.06650
C          2.16253        0.62172        2.46062
C          3.22865       -0.06941        1.78749
O          4.05927       -0.81821        2.26124
C          3.05050        0.38153        0.33516
C          2.01923        1.47711        0.27972
C          1.73021        2.31120       -0.74720
C          0.72535        3.31324       -0.64222
N         -0.10085        4.12266       -0.55565
C          2.41396        2.28396       -1.99245
N          2.97123        2.25875       -3.01429
C          3.64632       -0.24984       -0.69218
C          4.59797       -1.35886       -0.61593
C          5.96327       -1.10196       -0.52514
C          6.87034       -2.17565       -0.54177
N          8.26923       -1.81024       -0.53439
O          8.73964       -1.38403       -1.59775
O          8.86699       -1.88251        0.54624
C          6.46095       -3.51782       -0.63100
C          5.07219       -3.73604       -0.70835
C          4.15516       -2.67746       -0.71885
C          7.36505       -4.69147       -0.57750
C          7.08339       -5.84905       -1.20092
C          7.87218       -7.04575       -1.17391
N          8.12037       -7.84855       -0.05685
C          7.54621       -7.71362        1.26494
C          6.21960       -8.45109        1.39597
C          8.86538       -9.00005       -0.40259
O          9.22282       -9.93558        0.28315
C          9.05974       -8.83426       -1.84933
C          8.40925       -7.62276       -2.25045
C          8.55829       -7.48117       -3.70617
O          8.13354       -6.57807       -4.39665
N          9.28171       -8.64123       -4.05522
C          9.68299       -8.92218       -5.42218
C          8.49319       -9.09405       -6.35643
C          9.59258       -9.40426       -2.92744
C         10.34665      -10.61624       -2.97858
C         11.46841      -10.82052       -2.27246
C         12.22224      -12.01192       -2.41354
O         13.05938      -12.49385       -1.40658
C         12.35884      -12.88975       -3.45465
C         11.92216      -13.13765       -4.79531
O         11.15836      -12.47815       -5.47715
N         12.57683      -14.29689       -5.15460
C         13.39702      -14.80763       -4.16883
O         14.08448      -15.81339       -4.19723
C         13.25571      -13.88885       -3.08777
C         13.70055      -13.65935       -1.81445
C         14.63052      -14.38769       -1.03294
C         14.52017      -14.42108        0.30299
C         15.46205      -15.10276        1.15955
C         15.83026      -16.39387        1.14650
C         17.09980      -16.72748        1.92221
O         17.65718      -16.07027        2.77932
C         17.50701      -17.96637        1.31998
C         18.57580      -18.79619        1.47061
S         18.49020      -20.12994        0.41147
C         16.97958      -19.60018       -0.25177
C         16.58287      -18.43467        0.34767
C         15.43076      -17.56405        0.31092
C         14.20888      -17.87185       -0.18305
C         13.99189      -19.03056       -0.98339
N         13.82616      -19.97118       -1.64254
C         13.03330      -17.14411        0.15562
N         12.04806      -16.60858        0.45419
Cl        19.90175      -18.64930        2.54457
H         -0.27661        2.89566        1.88375
H          3.44062        0.00472       -1.72611
H          6.32750       -0.07843       -0.46112
H          4.66856       -4.74561       -0.76356
H          3.09564       -2.90587       -0.81371
H          8.27331       -4.59370        0.01481
H          6.22014       -5.92263       -1.86150
H          7.42944       -6.65722        1.51823
H          8.25204       -8.14677        1.98421
H          5.47324       -8.04878        0.70395
H          5.83033       -8.35457        2.41462
H          6.33245       -9.51943        1.17929
H         10.30190       -9.82292       -5.46317
H         10.29821       -8.08365       -5.76624
H          7.84150       -9.90617       -6.01881
H          8.83634       -9.32351       -7.36994
H          7.88950       -8.18280       -6.41043
H          9.95147      -11.37189       -3.65208
H         11.84306      -10.07441       -1.57512
H         12.45982      -14.72592       -6.05622
H         15.42595      -14.91597       -1.55140
H         13.72806      -13.86847        0.81083
H         15.95477      -14.42063        1.85815
H         16.50641      -20.20139       -1.01670
