96

C          3.87523        5.47604       -5.32456
C          3.07742        5.17308       -6.37198
C          2.32164        3.96213       -6.42349
N          1.69554        2.98715       -6.49110
C          2.89622        6.05418       -7.46976
N          2.75688        6.77361       -8.36976
C          4.69208        6.68219       -5.07888
C          5.00764        6.84858       -3.71863
C          5.82783        7.90478       -3.30486
C          6.34792        8.78731       -4.24936
C          6.06132        8.60921       -5.60113
C          5.23987        7.55823       -6.01920
C          4.54669        5.72893       -2.88200
S          4.00587        4.43952       -3.91631
C          4.64127        5.70586       -1.54070
C          4.53215        4.54173       -0.72081
C          3.82340        3.34283       -0.85234
C          4.32814        2.35530        0.01799
C          5.26156        2.87848        0.87787
S          5.54503        4.49969        0.71050
C          5.79904        1.83923        1.65508
C          5.21208        0.65304        1.28913
C          4.23172        0.91060        0.23197
C          3.46094        0.02406       -0.42674
C          3.52333       -1.36856       -0.15079
N          3.58013       -2.50636        0.07010
C          2.55136        0.43218       -1.44039
N          1.80285        0.76794       -2.26078
C          5.74651       -0.42823        2.02120
C          6.71718       -0.01145        2.94768
S          6.99005        1.72090        2.79202
C          7.44972       -0.78465        3.92385
C          7.83345       -0.19020        5.07182
C          8.46996       -0.90819        6.13545
C          8.66100       -2.35793        6.10859
C          8.36947       -3.12450        5.05908
S          7.74165       -2.48807        3.56056
C          9.16078       -2.71150        7.37901
C          9.30971       -1.58015        8.14852
C          9.73186       -1.84526        9.45883
C          9.88843       -3.21401        9.62989
S          9.53336       -4.12171        8.19075
C          8.88506       -0.45784        7.35276
C          8.76471        0.90338        7.80368
C          9.79403        1.68460        8.16228
C          9.56688        3.03882        8.54266
C          8.57394        3.92986        8.12101
C          8.68550        5.17295        8.77123
C          9.75210        5.19147        9.64309
S         10.63403        3.78634        9.69962
C          9.80994        6.45554       10.26497
C          8.77822        7.22651        9.78359
C          8.00666        6.46693        8.80362
C          6.93491        6.86964        8.09201
C          6.38605        8.17712        8.23390
N          5.93060        9.23869        8.35502
C          6.28622        6.00823        7.16681
N          5.75658        5.29287        6.41763
C          8.76932        8.49978       10.37585
C          9.85387        8.68812       11.23871
S         10.77400        7.20439       11.39174
C         10.28586        9.83777       11.97932
C         10.12211       11.11517       11.58456
C         10.59128       12.31007       12.30494
C         10.58350       13.46923       11.50107
C         10.16537       13.19107       10.11175
C         10.36859       13.89038        8.97223
C         11.08538       15.11353        8.94759
N         11.67124       16.11598        8.92839
C          9.92532       13.40126        7.70244
N          9.58159       12.99963        6.67075
S          9.39584       11.62361       10.08681
C         10.88494       14.70625       12.07406
C         11.22835       14.78049       13.42606
C         11.26577       13.62761       14.21097
C         10.94310       12.38844       13.65514
H          6.11709        8.03123       -2.26566
H          7.00704        9.59336       -3.93465
H          6.49901        9.27892       -6.33850
H          5.08853        7.43438       -7.08667
H          4.98870        6.60001       -1.02830
H          3.09034        3.17209       -1.62900
H          5.45111       -1.46626        1.92307
H          7.62042        0.85393        5.27484
H          8.52322       -4.19783        5.10137
H          9.88411       -1.11510       10.24315
H         10.17807       -3.74098       10.52847
H          7.74648        1.28669        7.80438
H         10.81198        1.29992        8.16553
H          7.82744        3.66099        7.38370
H          8.03841        9.26990       10.17207
H         10.83111        9.63635       12.89878
H         10.83504       15.63409       11.51337
H         11.45319       15.74743       13.87222
H         11.52352       13.70201       15.26547
H         10.94326       11.51084       14.29509
