71

C          1.41791       -0.53373       -1.97293
C          0.31970       -0.11022       -1.24460
N         -0.63116       -0.96314       -0.78975
C         -0.44666       -2.27524       -1.08967
C          0.66337       -2.68433       -1.82906
N          1.61599       -1.83071       -2.28484
C         -1.48800       -3.18312       -0.57706
C         -2.64428       -2.86747        0.14923
C         -3.39789       -4.02366        0.45310
C         -2.79177       -5.15776       -0.03561
S         -1.36970       -4.90118       -0.84284
C         -3.57491       -6.28158        0.29468
C         -4.68332       -5.86223        0.99323
C         -4.63754       -4.40262        1.13639
C         -5.52633       -3.59901        1.75204
C         -6.69403       -4.11805        2.37450
N         -7.64878       -4.54227        2.87979
C         -5.34939       -2.18905        1.81168
N         -5.21415       -1.03803        1.86450
C         -5.50755       -6.95431        1.34828
C         -4.97407       -8.16675        0.89827
S         -3.47441       -7.91948        0.04851
C         -5.51578       -9.50363        1.07140
C         -5.33722      -10.60018        0.21940
C         -6.01543      -11.73689        0.73417
C         -6.63469      -11.43292        1.89376
S         -6.49934       -9.87667        2.47510
C         -7.27292      -12.52503        2.36247
C         -7.07740      -13.55932        1.51713
N         -6.29569      -13.05957        0.50785
C         -5.82388      -13.80584       -0.62861
C         -7.74007      -14.72168        1.99550
C         -8.40256      -14.44227        3.19728
S         -8.20081      -12.78173        3.72320
C         -9.18465      -15.36749        3.99985
C        -10.26888      -15.08304        4.83791
C        -10.76306      -16.25220        5.46217
C        -10.04278      -17.36006        5.08064
S         -8.81086      -17.06770        4.00777
C        -10.56872      -18.49348        5.73109
C        -11.62442      -18.11294        6.52628
C        -11.81401      -16.66356        6.40232
C        -12.73680      -15.89123        7.00781
C        -13.70201      -16.43419        7.90182
N        -14.49199      -16.86976        8.63071
C        -12.79863      -14.48724        6.78190
N        -12.85049      -13.34527        6.59569
C        -12.18278      -19.22529        7.20132
C        -11.51026      -20.41425        6.88247
S        -10.21574      -20.10968        5.75483
C        -11.76492      -21.78579        7.36381
C        -11.02504      -22.90516        6.97794
N        -11.27278      -24.16247        7.42784
C        -12.30174      -24.26691        8.29225
C        -13.04544      -23.16788        8.68730
N        -12.79798      -21.91153        8.23679
H          2.17182        0.16009       -2.32665
H          0.17503        0.93720       -1.00407
H          0.83869       -3.72153       -2.09007
H         -2.88792       -1.84519        0.41909
H         -6.44217       -6.89666        1.89304
H         -4.76865      -10.57903       -0.70159
H         -6.19568      -14.83245       -0.58216
H         -4.73074      -13.80936       -0.61274
H         -6.18933      -13.32376       -1.53933
H         -7.74101      -15.68486        1.50110
H        -10.65849      -14.07997        4.96366
H        -13.02216      -19.21000        7.88879
H        -10.19400      -22.84306        6.28502
H        -12.51272      -25.26461        8.66022
H        -13.86956      -23.27152        9.38460
