102

C         -2.14022        0.37428       -3.72862
C         -1.12289        1.16804       -4.13979
C          0.07144        0.65612       -4.71246
N          1.05502        0.24075       -5.17016
C         -1.18338        2.59066       -4.09047
N         -1.23131        3.75034       -4.04598
C         -2.22938       -1.10269       -3.90684
C         -3.57308       -1.47493       -3.84152
C         -4.02608       -2.78232       -3.98906
C         -3.05622       -3.79346       -4.18072
C         -1.70056       -3.42997       -4.20056
C         -1.26524       -2.08898       -4.06439
S         -0.68493       -4.81300       -4.39591
C         -2.00983       -5.85401       -4.47017
C         -3.21416       -5.21299       -4.35072
Br        -1.83906       -7.70645       -4.68771
C         -4.41038       -0.30914       -3.52264
O         -5.62195       -0.29436       -3.56694
C         -3.45185        0.80561       -3.19151
C         -3.68570        1.87068       -2.40454
C         -4.89324        2.16201       -1.70834
C         -5.86815        1.32080       -1.17451
C         -6.90799        2.04719       -0.57124
C         -6.65662        3.39717       -0.57268
S         -5.24435        3.83521       -1.32424
C         -7.75557        4.06307        0.00771
C         -8.72293        3.13522        0.32786
C         -8.20170        1.79176        0.05128
C         -8.73955        0.59197        0.34517
C         -8.05401       -0.63329        0.08904
N         -7.47896       -1.62737       -0.08944
C         -9.99635        0.48790        0.99450
N        -11.02096        0.39490        1.52925
C         -9.92406        3.76976        0.72834
C         -9.79345        5.16406        0.70503
S         -8.15668        5.64022        0.33374
C        -10.78045        6.18901        0.85378
C        -11.15947        6.70706        2.03163
C        -12.13217        7.76692        2.21330
C        -12.36251        8.08837        3.49967
C        -11.60673        7.28180        4.44258
S        -10.54694        6.16979        3.55909
C        -11.58569        7.33453        5.78844
C        -12.19936        8.28662        6.69712
C        -11.59288        8.31484        7.90302
C        -10.47238        7.38831        7.99471
S        -10.63245        6.19802        6.74069
C         -9.43745        7.46468        8.85195
C         -8.23013        6.68196        8.74570
C         -7.53105        6.23579        7.61119
C         -6.38219        5.48527        7.94038
C         -6.19193        5.44400        9.29998
S         -7.35715        6.23086       10.19438
C         -5.02713        4.68777        9.56359
C         -4.49802        4.21604        8.38238
C         -5.31616        4.73440        7.27036
C         -5.12281        4.57164        5.95220
C         -5.97117        5.17123        4.97579
N         -6.65129        5.65432        4.16862
C         -4.02923        3.80641        5.45468
N         -3.15298        3.15910        5.05841
C         -3.38041        3.35624        8.60522
C         -3.04681        3.26708        9.95895
S         -4.17928        4.25900       10.91459
C         -2.12623        2.53251       10.76905
C         -0.90538        1.98845       10.63579
C          0.21669        1.76254        9.69435
C          0.53535        2.45321        8.57248
C          1.69712        2.17900        7.77845
N          2.63393        1.96243        7.12967
C         -0.16924        3.60547        8.14243
N         -0.66968        4.58999        7.77760
C          1.19631        0.83137       10.37704
C          0.82376        0.71667       11.71156
C         -0.47576        1.33150       11.93793
O         -1.06256        1.29148       13.00197
C          1.60725        0.15510       12.71740
C          2.88385       -0.31847       12.35992
C          3.23326       -0.32246       11.00201
C          2.38079        0.20496        9.98965
S          4.81152       -0.99645       10.77955
C          5.05742       -1.13901       12.44471
C          3.96176       -0.78803       13.18614
Br         6.67249       -1.71184       13.20248
H         -5.08644       -3.01475       -3.92773
H         -0.20084       -1.88182       -4.06213
H         -4.17166       -5.71987       -4.37257
H         -2.88346        2.57287       -2.19692
H         -5.82308        0.24371       -1.25783
H        -10.86407        3.27890        0.95092
H        -11.21623        6.56426       -0.06658
H        -12.62654        8.24514        1.37725
H        -13.06760        8.85019        3.80479
H        -13.01183        8.94230        6.41504
H        -11.85773        8.99480        8.70139
H         -9.46338        8.21885        9.63463
H         -7.86585        6.44648        6.60264
H         -2.85601        2.81293        7.83076
H         -2.55685        2.40030       11.76728
H          1.26984        0.15886       13.75087
H          2.72589        0.15631        8.96349
H          3.92826       -0.82067       14.26922
