104

C          2.59206        0.54215        0.57921
C          2.03818       -0.67066        0.34790
C          2.70805       -1.88683        0.65007
N          3.26000       -2.87036        0.93705
C          0.76847       -0.84691       -0.28135
N         -0.26705       -1.00458       -0.78063
C          3.96707        0.78839        1.11821
C          4.34652        2.08475        0.75323
C          5.58118        2.63618        1.05692
C          6.46566        1.89296        1.84239
C          6.09064        0.59801        2.29650
C          4.84496        0.04438        1.90369
C          6.96795       -0.08538        3.15860
C          8.17531        0.49270        3.56573
C          8.54621        1.74621        3.08936
C          7.70092        2.43726        2.22314
C          3.24223        2.78583        0.08112
O          3.34032        3.85688       -0.48130
C          2.05126        1.86932        0.17751
C          0.76546        2.24611        0.03667
C          0.18396        3.58151       -0.16401
C         -0.97488        3.81766       -0.92061
F         -1.51644        2.78153       -1.58592
C         -1.66305        5.06262       -0.97163
F         -2.84253        5.04221       -1.61644
C         -1.24685        6.25360       -0.31745
C         -0.07949        6.02838        0.47448
C          0.58067        4.70413        0.58584
N          1.49858        4.77973        1.56525
N          1.51414        6.07985        1.85177
N          0.60215        6.87336        1.27794
C          2.34823        6.56686        2.92285
C         -1.96890        7.55933       -0.33165
C         -2.03040        8.32584        0.84513
C         -2.67394        9.55948        0.89285
C         -3.28471       10.10719       -0.24109
C         -3.23946        9.35812       -1.43793
C         -2.61003        8.07640       -1.47783
N         -2.63134        7.36097       -2.62630
C         -3.31039        7.83633       -3.69644
C         -3.85955        9.10383       -3.67748
N         -3.79178        9.86550       -2.56338
C         -4.59680        9.69019       -4.84108
C         -3.41118        6.93082       -4.88434
C         -3.93346       11.44278       -0.15822
C         -5.10863       11.82934       -0.84367
F         -5.82098       10.90750       -1.51463
C         -5.62620       13.14739       -0.88336
F         -6.58399       13.37532       -1.79939
C         -5.15620       14.22100       -0.10248
C         -3.98268       13.88657        0.60630
C         -3.37515       12.53053        0.57174
N         -2.24439       12.58495        1.30270
N         -2.18539       13.86502        1.68329
N         -3.19480       14.67842        1.35683
C         -0.96619       14.40937        2.23157
C         -5.64988       15.61151       -0.10289
C         -6.92476       16.00204       -0.28073
C         -7.44062       17.32640       -0.67998
C         -7.10962       18.52542       -0.14936
C         -7.76228       19.73102       -0.53456
N         -8.29889       20.70849       -0.85429
C         -6.13400       18.64947        0.88542
N         -5.33574       18.75877        1.71995
C         -8.50761       17.03752       -1.68968
C         -8.82112       15.67191       -1.59970
C         -8.05115       15.05115       -0.51770
O         -8.31230       14.02784        0.07744
C         -9.60113       14.99443       -2.51806
C        -10.12978       15.72262       -3.58415
C         -9.91602       17.13191       -3.65713
C         -9.09180       17.78007       -2.70586
C        -10.50580       17.84099       -4.71436
C        -11.24102       17.18054       -5.70241
C        -11.38994       15.79696       -5.65761
C        -10.84381       15.07290       -4.59979
H          5.81908        3.64329        0.72693
H          4.58737       -0.94726        2.26627
H          6.70954       -1.06954        3.54537
H          8.82571       -0.03440        4.26028
H          9.48650        2.19447        3.40145
H          8.00557        3.41893        1.86538
H         -0.02972        1.51239        0.13222
H          2.99541        5.75600        3.26971
H          1.69560        6.89198        3.73651
H          2.95417        7.39435        2.54953
H         -1.56622        7.97505        1.76501
H         -2.67070       10.09588        1.84053
H         -4.04286        9.53640       -5.77184
H         -4.72472       10.77014       -4.71004
H         -5.58988        9.23874       -4.93200
H         -3.10574        5.91237       -4.62177
H         -2.76046        7.28972       -5.68640
H         -4.44205        6.87692       -5.25046
H         -0.28061       13.59338        2.47322
H         -1.20679       14.98052        3.13046
H         -0.52114       15.05584        1.47023
H         -4.85262       16.35088       -0.04169
H         -9.72674       13.91828       -2.43375
H         -8.88298       18.83869       -2.83058
H        -10.39277       18.92191       -4.78515
H        -11.68936       17.74590       -6.51545
H        -11.93494       15.28052       -6.44377
H        -10.96637       13.99120       -4.58451
