88

C         -0.68002        1.07264       -0.09064
C         -1.85708        1.18308       -0.74418
C         -3.02950        0.53116       -0.28098
N         -3.98762        0.00051        0.10897
C         -1.95550        1.86728       -1.99404
N         -2.03015        2.39863       -3.02141
C         -0.36030        0.18022        1.03514
C          0.95863       -0.27065        0.85214
C          1.57572       -1.14234        1.72738
C          0.89432       -1.46212        2.91030
C         -0.38506       -0.88586        3.18042
C         -1.02983       -0.09624        2.21250
C         -0.96804       -1.08061        4.43961
C         -0.33143       -1.86110        5.40499
C          0.87893       -2.48431        5.11317
C          1.48837       -2.28766        3.87334
C          1.61427        0.52943       -0.21642
O          2.74527        0.42168       -0.63523
C          0.60574        1.59742       -0.53017
C          1.00862        2.86730       -0.69875
C          0.16264        3.99063       -0.42432
C         -0.83581        4.15655        0.54851
C         -1.42236        5.43636        0.49111
C         -0.81627        6.21220       -0.46759
S          0.39151        5.46297       -1.32589
C         -1.40194        7.49314       -0.44810
C         -2.38264        7.52802        0.51836
C         -2.46508        6.21619        1.16523
C         -3.31559        5.81108        2.13087
C         -4.29516        6.68398        2.68039
N         -5.09611        7.39504        3.12718
C         -3.28631        4.47842        2.63062
N         -3.23911        3.38028        3.00749
C         -2.99723        8.79802        0.57942
C         -2.44353        9.67425       -0.35906
S         -1.18413        8.90849       -1.28255
C         -2.79904       11.05720       -0.60759
C         -2.68163       11.74585       -1.82010
C         -3.11776       13.08653       -1.66247
C         -3.51737       13.30406       -0.39249
S         -3.44189       12.04115        0.69055
C         -3.91735       14.58327       -0.26013
C         -3.79589       15.21796       -1.44444
N         -3.29671       14.28086       -2.30943
C         -3.00100       14.50849       -3.69893
C         -4.22116       16.56621       -1.32773
C         -4.62719       16.83015       -0.01543
S         -4.49632       15.44111        1.04443
C         -5.12007       18.09314        0.50306
C         -4.98581       18.57218        1.81013
C         -5.57892       19.85544        1.91912
C         -6.11544       20.23206        0.73930
S         -5.98666       19.19192       -0.55434
C         -6.67532       21.45096        0.86826
C         -6.49472       21.89330        2.13062
N         -5.82389       20.89209        2.77845
C         -5.41889       20.92008        4.15872
C         -7.05879       23.18381        2.28865
C         -7.62525       23.60120        1.08782
S         -7.51267       22.42491       -0.19591
C         -8.30923       24.91517        0.89480
C         -8.07708       26.11453        1.53624
O         -8.96021       27.04200        1.05877
N         -9.76603       26.47338        0.09127
C         -9.35385       25.20804       -0.00886
C         -7.12332       26.59647        2.49400
O         -6.20024       25.95931        2.99538
H          2.59003       -1.48194        1.53948
H         -1.99826        0.35068        2.42661
H         -1.91265       -0.60178        4.69265
H         -0.78245       -1.98203        6.38685
H          1.36166       -3.10873        5.86072
H          2.44488       -2.76763        3.67678
H          2.05909        3.06978       -0.90837
H         -1.09830        3.38602        1.26157
H         -3.80184        9.09119        1.24366
H         -2.31354       11.31258       -2.74144
H         -3.18998       15.55452       -3.95324
H         -3.64370       13.86080       -4.30072
H         -1.94815       14.27304       -3.87525
H         -4.22476       17.29250       -2.13021
H         -4.48656       18.04508        2.61317
H         -5.72715       21.86200        4.61950
H         -4.33077       20.82734        4.20363
H         -5.89480       20.08421        4.67834
H         -7.06366       23.74003        3.21557
H         -9.85943       24.55329       -0.70555
H         -7.25346       27.65505        2.77633
