102

C          2.07666        6.02721        7.32065
C          1.79245        7.32281        7.57971
C          2.07161        7.91233        8.84615
N          2.32442        8.38171        9.87688
C          1.34196        8.21039        6.55790
N          0.99543        8.94345        5.72805
C          2.73165        5.05381        8.22629
C          3.45422        4.14386        7.43585
C          4.09203        3.03117        7.95025
C          3.93165        2.76522        9.31369
C          3.17242        3.65414       10.13359
C          2.60128        4.82028        9.58540
C          2.95296        3.31497       11.47595
C          3.45459        2.12299       12.00211
C          4.20643        1.26617       11.20299
C          4.45278        1.58977        9.86913
C          3.19927        4.39892        6.00413
O          3.69733        3.83022        5.05710
C          2.07669        5.38993        6.00550
C          1.13646        5.21325        5.07017
C         -0.22534        5.59203        5.20407
C         -1.41771        5.70305        5.18184
C         -2.81867        5.68978        4.92913
S         -3.53086        6.74949        3.79964
C         -5.02051        5.92422        3.87515
C         -5.01207        4.92125        4.81873
C         -3.72907        4.78921        5.43998
C         -6.10943        6.26633        3.02908
C         -6.99266        6.61347        2.29449
C         -8.03746        7.08912        1.46292
C         -8.09403        8.38173        1.11925
C         -9.25526        8.88625        0.35762
N        -10.29965        8.17264        0.01225
C        -11.09138        9.06973       -0.62877
C        -10.49702       10.37978       -0.59385
C        -11.32631       11.31686       -1.38733
O        -11.17799       12.50339       -1.57198
C        -12.36729       10.41617       -1.93240
C        -12.16434        9.08690       -1.41366
N        -13.05482        8.23007       -1.97676
C        -13.73557        9.00548       -2.77556
C        -13.36642       10.43728       -2.80357
C         -9.29541       10.33465       -0.03295
C         -8.25683       11.31536       -0.08143
C         -7.05530       11.03130       -0.60107
C         -6.04915       12.00713       -0.78809
C         -5.16558       12.76684       -1.06975
C         -4.12204       13.60679       -1.54145
S         -4.29773       15.28900       -1.74012
C         -2.74777       15.42500       -2.44195
C         -2.08566       14.21820       -2.47744
C         -2.88375       13.16104       -1.94923
C         -2.24187       16.65485       -2.94232
C         -1.88019       17.71426       -3.37260
C         -1.52020       18.98904       -3.87565
C         -2.38737       20.00825       -3.82520
C         -2.06375       21.32104       -4.33073
C         -2.74472       21.98397       -5.27847
C         -2.47296       23.29783       -5.89936
C         -1.77796       24.33228       -5.35464
C         -1.65498       25.59666       -5.98840
N         -1.54805       26.63318       -6.50041
C         -1.16793       24.26490       -4.07174
N         -0.66481       24.22000       -3.02668
C         -3.26631       23.34704       -7.16440
C         -4.13648       22.25005       -7.18485
C         -3.89861       21.37480       -6.03043
O         -4.52213       20.36292       -5.78686
C         -5.06383       22.02214       -8.19124
C         -5.12082       22.92674       -9.25628
C         -4.21853       24.02521       -9.29318
C         -3.29017       24.21889       -8.24679
C         -4.27135       24.91015      -10.38109
C         -5.20074       24.72895      -11.40689
C         -6.09040       23.65972      -11.36164
C         -6.04941       22.76143      -10.29476
H          4.60719        2.34265        7.28631
H          1.99491        5.46790       10.21312
H          2.36012        3.96095       12.12082
H          3.24867        1.85825       13.03634
H          4.59039        0.33577       11.61392
H          5.02947        0.89722        9.25898
H          1.34902        4.56465        4.22161
H         -5.86482        4.28572        5.02946
H         -3.48733        4.02921        6.17383
H         -8.80540        6.38363        1.15865
H         -7.32648        9.08128        1.42936
H        -14.54469        8.65231       -3.43193
H        -13.75322       11.22416       -3.41882
H         -8.51400       12.33465        0.20345
H         -6.82466       10.03462       -0.96801
H         -1.08981       14.08919       -2.88357
H         -2.57459       12.12349       -1.90564
H         -0.53683       19.10056       -4.32052
H         -3.38181       19.87092       -3.40030
H         -1.16805       21.73066       -3.87375
H         -5.71738       21.15512       -8.14096
H         -2.60536       25.05699       -8.32400
H         -3.58982       25.75703      -10.43904
H         -5.23101       25.42630      -12.24059
H         -6.81719       23.52314      -12.15865
H         -6.75236       21.93069      -10.28112
