95

C          2.41669       -1.78103        1.57859
C          1.01363       -1.48403        1.23055
C          0.64420       -1.17478       -0.08478
C         -0.67364       -0.85230       -0.40015
C         -1.64462       -0.83254        0.59064
C         -1.29827       -1.14453        1.89762
C          0.01762       -1.46950        2.21521
F          0.32865       -1.78190        3.48427
F         -2.23894       -1.14808        2.85443
F         -2.91359       -0.53612        0.27942
F         -1.00978       -0.57803       -1.66874
F          1.56402       -1.20343       -1.06026
C          3.37252       -0.89042        1.93677
C          4.69877       -1.47512        2.28185
C          5.68337       -1.66489        1.30489
C          6.94887       -2.14307        1.64286
C          7.25433       -2.43336        2.96465
C          6.29348       -2.25358        3.94887
C          5.02475       -1.78311        3.61040
F          4.11718       -1.60301        4.58059
F          6.58985       -2.51795        5.22902
F          8.47603       -2.87749        3.29089
F          7.87672       -2.30820        0.69062
F          5.42065       -1.36121        0.02497
C          3.08404        0.52189        2.02157
S          4.30424        1.65028        2.53783
C          3.09072        2.86764        2.58066
N          1.93860        2.47180        2.08661
N          1.93913        1.13434        1.76402
C          3.36076        4.08983        3.23800
C          3.70939        5.20756        2.58430
C          3.97271        6.48670        3.21135
N          4.31602        7.64735        2.49259
C          4.48663        7.79206        1.05788
C          3.53678        8.82241        0.46081
C          4.54347        8.74684        3.35128
O          4.88293        9.88514        3.10208
C          4.26083        8.18696        4.67599
C          3.94479        6.79150        4.51868
C          3.71434        6.25638        5.88276
O          3.45882        5.11860        6.20802
N          3.87644        7.38355        6.70615
C          3.72923        7.29495        8.14478
C          5.03561        6.94054        8.83728
C          4.20100        8.51573        5.96338
C          4.44583        9.79561        6.55716
C          3.78826       10.91331        6.20904
C          4.03750       12.21909        6.82222
C          5.23867       12.57357        7.40513
N          5.49259       13.77839        7.94189
C          4.53140       14.70093        7.80033
N          3.30856       14.48114        7.29073
C          3.09344       13.23262        6.81407
C          4.82933       16.02032        8.37503
C          4.57264       16.23649        9.81805
C          3.36211       16.78411       10.25839
C          3.07688       16.87885       11.61799
C          3.99532       16.42688       12.55497
C          5.20447       15.89107       12.13619
C          5.49342       15.79878       10.77852
F          6.66564       15.27041       10.39794
F          6.08954       15.44720       13.03951
F          3.71190       16.50053       13.86282
F          1.90633       17.39155       12.02209
F          2.45203       17.20909        9.36936
C          5.36635       17.04977        7.67896
C          5.71480       17.20209        6.24147
C          5.62037       18.49335        5.68895
C          5.92788       18.75117        4.35286
C          6.32961       17.72079        3.52291
C          6.47284       16.44680        4.04323
C          6.20078       16.19824        5.39096
F          6.47961       14.97464        5.85007
F          6.89653       15.44893        3.25392
F          6.60294       17.95848        2.23273
F          5.84432       20.00117        3.87671
F          5.23794       19.52279        6.46262
H          2.64014       -2.84820        1.54357
H          3.23951        4.04698        4.30889
H          3.79467        5.14854        1.50396
H          4.33943        6.84176        0.54219
H          5.52184        8.10257        0.87486
H          2.49477        8.55924        0.66747
H          3.67342        8.88285       -0.62292
H          3.71511        9.82160        0.86967
H          2.99872        6.50694        8.36512
H          3.31800        8.23145        8.53574
H          5.36577        5.93420        8.55789
H          4.90651        6.96339        9.92385
H          5.83402        7.63955        8.57039
H          5.20374        9.80066        7.33537
H          3.02371       10.88726        5.43372
H          6.08074       11.89080        7.45220
H          2.09581       13.07145        6.41081
H          5.55179       17.97300        8.23421
