106

C          2.89737        3.20026       -4.95302
C          2.22311        4.13710       -5.69580
S          2.50489        3.88708       -7.38724
C          3.50856        2.54326       -7.09014
Cl         4.21440        1.70246       -8.40534
C          3.62637        2.29276       -5.75658
C          4.32713        1.30277       -4.99302
O          5.03518        0.41123       -5.41386
C          3.94488        1.65392       -3.55118
C          3.07358        2.88598       -3.55346
C          2.58662        3.58629       -2.50070
C          1.78174        4.74709       -2.67798
N          1.12619        5.69269       -2.82226
C          2.84558        3.25053       -1.14371
N          3.05490        2.98405       -0.03475
C          4.30987        0.86954       -2.51926
C          5.12226       -0.31837       -2.58043
C          4.69572       -1.52673       -2.15957
C          5.77418       -2.50151       -2.36285
C          6.89554       -1.73167       -2.92527
C          6.49315       -0.45542       -3.04085
C          8.18076       -2.16431       -3.32238
N          9.25950       -2.47373       -3.62139
C          5.69596       -3.82293       -2.09913
C          6.77700       -4.78928       -2.27300
C          6.32559       -6.03330       -1.99657
C          4.92381       -5.89522       -1.61000
C          4.54988       -4.60471       -1.63161
C          3.25301       -4.16580       -1.28026
N          2.19048       -3.81266       -0.97419
C          7.16000       -7.21048       -2.08204
N          7.09164       -8.32815       -1.23514
C          6.23284       -8.53404       -0.08567
C          6.82924       -8.02374        1.21593
C          8.04391       -9.30507       -1.59249
O          8.24786      -10.39579       -1.10285
C          8.74734       -8.69542       -2.72976
C          8.12890       -7.42340       -2.98720
C          8.80196       -6.83770       -4.16539
O          8.54121       -5.78401       -4.70622
N          9.77146       -7.80871       -4.49076
C         10.72043       -7.61044       -5.57146
C         11.96986       -6.87220       -5.11587
C          9.72597       -8.89394       -3.61347
C         10.56894      -10.05279       -3.73591
C         11.41024      -10.48819       -2.78134
C         12.21432      -11.69488       -2.88301
C         13.11806      -11.99366       -3.85152
N         13.47879      -11.13620       -4.95984
O         13.41474       -9.90954       -4.81752
O         13.86489      -11.70148       -5.99316
C         13.69149      -13.30573       -3.67983
C         13.16168      -13.86888       -2.58564
C         12.21695      -12.91823       -1.98235
C         11.49121      -13.15571       -0.86007
C         10.55019      -12.21154       -0.26661
C          9.86723      -12.83385        0.70281
C         10.42161      -14.15471        0.86621
N         10.06859      -14.99337        1.98780
O         10.10037      -16.22319        1.84585
O          9.73975      -14.41229        3.03193
C         11.42879      -14.39588       -0.00520
C         12.35698      -15.51080        0.00247
C         13.23948      -15.73224        0.98824
C         14.26274      -16.75918        0.93129
C         15.13561      -17.05756        1.90837
C         15.84152      -18.40646        1.85821
O         16.14312      -19.06533        0.88391
C         15.97725      -18.71103        3.26110
C         16.38606      -19.78822        3.98559
S         16.16499      -19.54067        5.66156
C         15.56142      -17.93269        5.42438
C         15.57674      -17.62899        4.09234
C         15.29040      -16.48570        3.27388
C         15.43072      -15.18867        3.60001
C         15.64606      -14.78579        4.94463
N         15.81592      -14.46982        6.04259
C         15.50349      -14.15141        2.62550
N         15.57554      -13.31006        1.82916
Cl        17.03594      -21.26891        3.42291
H          1.58265        4.95618       -5.39948
H          3.97990        1.06576       -1.50490
H          3.71703       -1.71238       -1.75013
H          7.07496        0.35861       -3.44904
H          7.78615       -4.55922       -2.57319
H          4.26764       -6.71433       -1.36056
H          6.04576       -9.60988        0.01492
H          5.25869       -8.08089       -0.24886
H          7.74747       -8.56258        1.47083
H          6.11544       -8.16973        2.03431
H          7.06450       -6.95676        1.15824
H         10.23111       -7.01623       -6.35264
H         10.98140       -8.57474       -6.01867
H         11.72379       -5.87425       -4.73880
H         12.66884       -6.75774       -5.95105
H         12.48060       -7.41160       -4.31290
H         10.48514      -10.58134       -4.68296
H         11.52430       -9.92270       -1.85898
H         14.42687      -13.74354       -4.33834
H         13.42378      -14.85260       -2.24307
H         10.41394      -11.17640       -0.51123
H          9.09179      -12.40148        1.31867
H         12.35354      -16.14003       -0.88323
H         13.17218      -15.11923        1.88213
H         14.25663      -17.38911        0.03965
H         15.25279      -17.34287        6.27940
