115

C         -0.88635        2.91367       -1.92729
C          0.24960        3.44544       -2.42884
C          0.28855        4.06227       -3.71174
N          0.29177        4.59158       -4.74275
C          1.48965        3.35468       -1.73188
N          2.51262        3.26269       -1.19228
C         -2.16131        2.71096       -2.64149
C         -2.75356        1.55026       -2.11779
C         -3.96517        1.06365       -2.56702
C         -4.67569        1.84108       -3.49171
C         -4.14122        3.08436       -3.94686
C         -2.85896        3.49627       -3.54367
C         -4.92918        3.90891       -4.76179
C         -6.21427        3.51735       -5.13780
C         -6.71420        2.28193       -4.73516
C         -5.94752        1.44507       -3.92352
C         -2.02671        1.11355       -0.89791
O         -2.26020        0.15010       -0.20537
C         -1.05246        2.22716       -0.64191
C         -0.92306        2.67642        0.62290
C         -0.59221        4.02919        0.94624
S         -1.22069        5.33691       -0.00268
C          0.08053        4.58397        2.00447
C          0.77867        4.11821        3.17569
O          0.89347        2.95887        3.53231
N          1.26164        5.26907        3.78217
C          2.06415        5.26042        4.98480
C          1.21313        5.35642        6.23935
C          0.89587        6.43732        3.13487
O          1.14180        7.59033        3.44366
C          0.15260        5.99353        1.98496
C         -0.48870        6.58060        0.93186
C         -0.62498        7.94522        0.57521
C         -1.67334        8.36601       -0.14742
C         -1.90806        9.72893       -0.46485
N         -2.09037       10.19863       -1.75967
C         -1.99228        9.42279       -2.98120
C         -0.58155        9.39302       -3.54735
C         -2.35584       11.57893       -1.76363
O         -2.54365       12.32302       -2.70413
C         -2.35753       11.91549       -0.32258
C         -2.07013       10.72041        0.40900
C         -2.10402       11.02642        1.84723
O         -1.91940       10.26002        2.76934
N         -2.42644       12.39717        1.85718
C         -2.61086       13.12316        3.10078
C         -1.32847       13.75002        3.62243
C         -2.54078       12.90043        0.55714
C         -2.87730       14.25654        0.26541
C         -2.48770       14.89989       -0.84552
C         -2.81548       16.25494       -1.11179
S         -3.70556       17.22698       -0.01563
C         -3.58284       18.61581       -0.99953
C         -2.90894       18.33874       -2.16995
C         -2.47942       16.98319       -2.23764
C         -2.66764       19.31236       -3.18976
N         -2.44012       20.07514       -4.02491
C         -4.15380       19.81727       -0.51210
C         -3.41871       20.60704        0.28240
C         -3.92859       21.82697        0.86733
C         -3.24372       22.67957        1.64647
C         -3.69990       23.91135        2.33712
C         -4.75272       24.70516        1.99969
C         -5.03535       25.92984        2.67291
N         -5.28189       26.92363        3.22262
C         -5.61937       24.42741        0.90699
N         -6.33741       24.20057        0.02922
C         -2.66552       24.21612        3.37511
C         -1.55897       23.38751        3.16022
C         -1.82123       22.44005        2.07892
O         -1.01031       21.63609        1.66897
C         -0.38840       23.44153        3.90112
C         -0.31321       24.37021        4.93870
C         -1.43568       25.19726        5.22164
C         -2.60981       25.10252        4.44139
C         -1.35049       26.11040        6.28104
C         -0.18230       26.22120        7.03745
C          0.91742       25.41806        6.74922
C          0.85236       24.49344        5.70767
H         -4.37977        0.15561       -2.13969
H         -2.46816        4.45241       -3.88189
H         -4.56224        4.87973       -5.08972
H         -6.82767        4.18037       -5.74303
H         -7.71247        1.97569       -5.03750
H         -6.36642        0.49166       -3.60798
H         -1.25835        2.05188        1.45218
H          2.75730        6.10843        4.94974
H          2.65175        4.33696        5.00719
H          0.67286        6.30815        6.27615
H          1.84522        5.28864        7.13031
H          0.47448        4.54960        6.27841
H          0.12088        8.65112        0.93895
H         -2.45295        7.69406       -0.49545
H         -2.65995        9.87274       -3.72507
H         -2.35194        8.40427       -2.80216
H         -0.21235       10.40423       -3.74696
H         -0.56591        8.83336       -4.48849
H          0.11504        8.91092       -2.85422
H         -2.98328       12.41812        3.85348
H         -3.38684       13.88511        2.98098
H         -0.55206       12.99410        3.77786
H         -1.51658       14.24414        4.58187
H         -0.93856       14.49883        2.92620
H         -3.48277       14.75371        1.01389
H         -1.88365       14.39467       -1.59590
H         -1.92620       16.55719       -3.07284
H         -5.18446       20.04049       -0.76853
H         -2.39820       20.30737        0.51224
H         -4.97617       22.00115        0.64139
H          0.43484       22.77132        3.66729
H         -3.44996       25.73621        4.70509
H         -2.19356       26.75439        6.52419
H         -0.13116       26.94032        7.85119
H          1.82780       25.51094        7.33598
H          1.72238       23.87357        5.49922
