84

C         -0.26519        5.04251       -4.40790
O          0.49489        4.05851       -3.86423
C          1.24974        4.59472       -2.83911
C          0.88248        5.93350       -2.72073
C         -0.05538        6.22045       -3.74230
C         -0.65834        7.47028       -4.05147
N         -1.13194        8.50719       -4.27841
C          2.22797        3.82261       -2.14469
C          3.28470        4.39914       -1.55147
C          4.43222        3.63386       -1.03932
C          5.46313        3.35715       -1.96231
C          6.58633        2.69118       -1.50735
C          6.71572        2.29999       -0.19225
C          8.01248        1.64311       -0.04397
O          8.43439        1.19997        1.00636
N          8.59388        1.65371       -1.28113
C          7.80481        2.28317       -2.20686
O          8.01813        2.49833       -3.38407
C          9.90707        1.10926       -1.56766
C         11.00388        2.14857       -1.39761
C          5.72849        2.54218        0.73878
C          4.56485        3.21355        0.31368
C          3.55244        3.42695        1.35273
C          3.58480        4.49932        2.15666
C          2.72712        4.59216        3.27975
S          2.24954        6.15145        3.89550
C          1.23564        5.50704        5.18911
C          1.39225        4.15977        5.12320
C          2.19223        3.68953        4.13054
C          2.05160        2.34144        4.64539
N          1.16232        2.93386        5.63214
C          0.49216        6.39388        6.11161
C          0.34495        5.97992        7.45728
C         -0.32020        6.81421        8.34239
C         -0.83844        8.02922        7.95109
C         -1.44400        8.66180        9.12098
O         -1.98350        9.75091        9.10491
N         -1.26154        7.79740       10.16441
C         -0.60348        6.66161        9.77217
O         -0.28612        5.68956       10.42990
C         -1.72289        8.04770       11.51681
C         -3.14389        7.55315       11.73624
C         -0.73983        8.47540        6.65177
C         -0.07961        7.65318        5.71775
C         -0.03931        8.19104        4.34880
C         -0.97041        7.90175        3.42735
C         -0.84432        8.40487        2.09822
O         -0.17392        9.57217        1.79700
C         -0.21120        9.81028        0.44444
C         -0.90957        8.76533       -0.13795
C         -1.31917        7.89312        0.90015
C         -2.07013        6.68326        0.74443
N         -2.66848        5.70391        0.60166
C          0.38256       10.93781       -0.18431
C          0.54093       12.09026        0.47768
H         -0.87838        4.74921       -5.25011
H          1.27903        6.62944       -1.99378
H          2.13750        2.74114       -2.20727
H          3.41951        5.47776       -1.53839
H          5.39625        3.66183       -3.00387
H          9.91236        0.73718       -2.59756
H         10.09638        0.26688       -0.89315
H         10.79185        3.05116       -1.97981
H         11.96484        1.74332       -1.73025
H         11.10459        2.44312       -0.34778
H          5.86048        2.22202        1.76913
H          2.85006        2.61248        1.50262
H          4.28621        5.31178        1.97741
H          2.97482        1.89774        5.03662
H          1.60428        1.61660        3.95967
H          1.42186        2.75298        6.59787
H          0.75270        5.03894        7.81703
H         -1.67912        9.12537       11.71029
H         -1.04863        7.54238       12.21680
H         -3.85128        8.09128       11.09667
H         -3.44215        7.70756       12.77829
H         -3.23188        6.48576       11.50935
H         -1.16017        9.43728        6.36877
H          0.82403        8.81203        4.11500
H         -1.81016        7.25544        3.66688
H         -1.11782        8.66972       -1.19496
H          0.68616       10.86170       -1.22457
H          0.21585       12.21339        1.50691
H          0.98410       12.95227       -0.01064
