149

C         -2.10676       -1.30336       -1.33255
C         -1.25647       -1.30277       -2.39162
C         -0.54017       -2.46519       -2.80225
N          0.04867       -3.40581       -3.13299
C         -1.06777       -0.16108       -3.21989
N         -0.91766        0.77661       -3.89129
C         -2.48125       -2.47816       -0.49284
C         -3.68460       -2.18630        0.15531
C         -4.32774       -3.05139        1.03199
C         -3.70943       -4.29229        1.29948
C         -2.49085       -4.58839        0.66822
C         -1.85596       -3.69202       -0.23058
S         -1.90735       -6.14375        1.14709
C         -3.23307       -6.40188        2.15886
C         -4.12024       -5.35954        2.16974
Br        -3.46289       -7.96186        3.17004
C         -4.12051       -0.81574       -0.14761
O         -5.19616       -0.34165        0.14616
C         -2.97589       -0.19041       -0.88982
C         -2.74311        1.13232       -0.90635
C         -3.57381        2.16036       -0.26588
C         -4.62852        2.75214       -0.96934
C         -5.31941        3.80510       -0.37995
C         -5.01185        4.22287        0.93489
C         -3.99212        3.61621        1.65092
C         -3.26359        2.59047        1.03894
C         -5.88719        5.31130        1.30623
C         -6.73578        5.61160        0.22278
C         -6.44681        4.67059       -0.96373
C         -5.94466        5.55684       -2.14255
C         -5.61354        4.84423       -3.44856
C         -7.71000        3.86047       -1.34387
C         -8.28595        2.97467       -0.23942
C         -7.65566        6.65261        0.29108
C         -7.71900        7.42186        1.45833
C         -6.90372        7.07622        2.55826
C         -5.98026        6.02809        2.48562
C         -8.63378        8.57452        1.48617
C         -8.39346        9.66785        2.22918
C         -9.24505       10.85545        2.30532
C         -8.71969       12.16362        2.54145
N         -7.43593       12.73028        2.63573
C         -6.17433       12.00771        2.55425
C         -5.64017       11.87158        1.14054
C         -7.50744       14.09682        2.92436
C         -8.86833       14.39118        3.06743
C         -9.61492       13.22342        2.75694
C        -11.01099       13.00964        2.70307
C        -11.51962       11.74676        2.44457
C        -10.64727       10.68809        2.26583
C         -9.28262       15.68170        3.46518
C         -8.33784       16.63820        3.79956
C         -6.99375       16.33742        3.66980
C         -6.55092       15.12078        3.12589
C         -5.11423       14.97239        2.91288
C         -4.34060       15.27522        1.85176
C         -4.61196       15.71621        0.46161
C         -3.74531       15.32496       -0.59205
C         -2.59814       14.39843       -0.50028
O         -2.33558       13.69273        0.45533
S         -1.65715       14.36671       -1.97117
C         -2.78793       15.40711       -2.79261
O         -2.64985       15.75017       -3.95100
C         -3.88971       15.81024       -1.90609
C         -4.97965       16.59984       -2.27753
C         -5.88437       16.88331       -1.26769
C         -5.64519       16.56471        0.05478
C         -6.47510       17.51113        0.77555
O         -6.16152       18.10008        1.78795
O         -7.47653       17.87274       -0.06237
C         -7.15892       17.57917       -1.34273
O         -7.81945       17.80968       -2.33235
C         -5.14049       17.18897       -3.60334
C         -4.65863       18.40664       -3.91699
C         -4.79949       18.99908       -5.25853
C         -4.86356       20.39654       -5.41270
C         -5.00881       20.92318       -6.69411
C         -5.07711       20.07247       -7.81734
C         -4.97413       18.70231       -7.68231
C         -4.82522       18.17278       -6.40255
C         -5.27910       20.85734       -9.00931
C         -5.36947       22.22019       -8.66353
C         -5.10739       22.38706       -7.15597
C         -6.23770       23.17376       -6.44197
C         -7.63194       22.55759       -6.51992
C         -3.75495       23.13068       -6.93437
C         -2.51027       22.44455       -7.50333
C         -5.63025       23.18322       -9.63466
C         -5.78567       22.77297      -10.97011
C         -5.62062       21.41171      -11.30224
C         -5.37967       20.44735      -10.32482
C         -6.06705       23.76994      -12.01447
C         -6.76490       23.50541      -13.12808
H         -5.25734       -2.76070        1.51408
H         -0.89844       -3.97134       -0.65642
H         -5.02499       -5.34189        2.76580
H         -1.84168        1.55088       -1.34525
H         -4.89047        2.40014       -1.96058
H         -3.74430        3.93592        2.65769
H         -2.44431        2.13153        1.58725
H         -5.05625        6.12331       -1.82997
H         -6.70867        6.30936       -2.38115
H         -4.83869        4.08716       -3.32495
H         -5.23018        5.56867       -4.17491
H         -6.49864        4.37681       -3.88840
H         -7.49804        3.21190       -2.20140
H         -8.49929        4.55266       -1.66627
H         -7.61442        2.14209       -0.00896
H         -9.23874        2.54725       -0.56921
H         -8.47826        3.53155        0.68204
H         -8.28724        6.88013       -0.56253
H         -6.97112        7.63057        3.49138
H         -5.35294        5.79959        3.34021
H         -9.50235        8.51252        0.83532
H         -7.53711        9.66810        2.88138
H         -6.29006       11.03814        3.02602
H         -5.44092       12.49377        3.20141
H         -6.43462       11.69830        0.40944
H         -4.92555       11.04441        1.08348
H         -5.10771       12.77515        0.83828
H        -11.69339       13.83705        2.87878
H        -12.59340       11.58640        2.41326
H        -11.07794        9.69909        2.12014
H        -10.33955       15.91314        3.56228
H         -8.64475       17.62374        4.13774
H         -6.26649       17.10440        3.93744
H         -4.60317       14.62647        3.81415
H         -3.27751       15.10793        2.04409
H         -5.68759       16.58268       -4.32052
H         -4.13703       19.01850       -3.18461
H         -4.81868       21.05694       -4.55211
H         -5.01541       18.04407       -8.54236
H         -4.72893       17.09360       -6.31070
H         -6.29524       24.18901       -6.85695
H         -5.98631       23.29507       -5.37975
H         -7.96251       22.42743       -7.55404
H         -8.35382       23.21484       -6.02263
H         -7.67226       21.58806       -6.01514
H         -3.58772       23.27879       -5.85932
H         -3.81604       24.13396       -7.37719
H         -2.28885       21.51449       -6.97053
H         -1.63950       23.09883       -7.39227
H         -2.61351       22.21777       -8.56832
H         -5.72177       24.22968       -9.35890
H         -5.67735       21.08547      -12.33726
H         -5.27032       19.40530      -10.60281
H         -5.68705       24.77389      -11.84631
H         -7.19023       22.52734      -13.33235
H         -6.94076       24.27672      -13.87025
