105

C        -14.35716        5.64952       12.54418
C        -14.18704        5.87744       13.90616
F        -14.03728        7.13439       14.34527
C        -14.16397        4.81768       14.80161
F        -13.98564        5.04454       16.10998
C        -14.32259        3.51047       14.35397
C        -14.49147        3.25360       12.98591
C        -14.49799        4.34063       12.06053
C        -14.63046        4.09609       10.67841
C        -14.72434        2.78957       10.21675
C        -14.78372        1.75189       11.15294
C        -14.65916        1.94611       12.51941
C        -15.05058        0.47043       10.48679
O        -15.08514       -0.60521       11.04678
C        -15.27218        0.79851        9.03260
C        -14.79497        2.19342        8.85295
C        -14.25954        2.74777        7.73666
C        -14.17579        2.05179        6.49592
N        -14.10113        1.50950        5.47470
C        -13.63282        4.03448        7.73711
N        -13.12232        5.07848        7.74897
C        -15.87109       -0.03034        8.15926
C        -16.31412       -1.39370        8.43250
C        -16.48693       -2.37087        7.52621
C        -16.78503       -3.74779        7.85714
C        -16.64552       -4.59574        6.82445
C        -16.25073       -3.94770        5.58378
S        -16.26573       -2.19053        5.80952
C        -15.81195       -4.52701        4.44784
C        -15.52547       -5.93059        4.19949
C        -14.62810       -6.11283        3.21070
C        -14.16021       -4.85784        2.63262
S        -15.31234       -3.60924        3.03157
C        -12.98592       -4.68805        1.97681
C        -12.40285       -3.42394        1.58079
C        -11.61681       -3.07648        0.47288
C        -11.07906       -3.92617       -0.65425
C        -11.92012       -5.09049       -1.12719
C        -11.28135       -1.66925        0.48793
C        -11.74135       -0.98942        1.58880
S        -12.42840       -2.08007        2.69243
C        -11.64216        0.38818        1.89779
C        -12.50257        1.32777        1.42148
C        -13.64957        1.12363        0.48788
C        -12.13966        2.67071        1.94944
C        -11.06152        2.50537        2.74502
C        -10.69529        1.10030        2.73373
C         -9.62963        0.65845        3.41490
C         -8.86882        1.62372        4.18277
C         -9.25977        2.90895        4.20446
O        -10.35634        3.40193        3.50846
C        -12.86082        3.90146        1.72719
C        -12.40107        5.06694        1.25314
C        -11.04290        5.35049        0.84493
C        -10.25715        6.34085        1.29640
C         -8.77901        6.22727        1.05726
O         -8.20215        5.58574        0.20234
C         -8.14297        7.04665        2.10622
C         -6.77875        7.21084        2.31074
C         -6.35833        8.08389        3.32550
C         -7.33230        8.72972        4.14231
C         -6.91867        9.63482        5.13037
C         -5.56765        9.90711        5.30673
C         -4.61532        9.27147        4.52378
C         -4.99764        8.35855        3.54286
F         -3.31457        9.54270        4.69741
F         -5.19633       10.80071        6.23352
C         -8.70371        8.49489        3.93576
C         -9.11917        7.68730        2.88664
C        -10.45574        7.41649        2.27935
C        -11.53235        8.23334        2.40232
C        -12.56859        8.26992        1.43037
N        -13.40137        8.35615        0.62413
C        -11.65633        9.21839        3.42009
N        -11.77101       10.01327        4.26282
H        -14.36329        6.50486       11.87315
H        -14.30284        2.70477       15.08304
H        -14.65674        4.94195        9.99687
H        -14.69849        1.09371       13.19320
H        -16.05679        0.30662        7.14174
H        -16.46236       -1.65426        9.47859
H        -17.04515       -4.05544        8.86157
H        -16.79609       -5.66266        6.91117
H        -15.94739       -6.73389        4.78922
H        -14.24802       -7.07936        2.90952
H        -12.38270       -5.56767        1.79243
H        -10.08204       -4.28227       -0.36587
H        -10.92184       -3.27308       -1.52551
H        -12.08938       -5.82561       -0.34010
H        -11.39884       -5.61083       -1.93848
H        -12.88763       -4.75062       -1.50712
H        -10.71216       -1.17631       -0.29228
H        -14.49942        0.67707        1.01328
H        -13.36651        0.46965       -0.34308
H        -13.98820        2.06304        0.03940
H         -9.32940       -0.38183        3.41192
H         -8.00079        1.28059        4.73207
H         -8.76416        3.69154        4.76063
H        -13.92526        3.82841        1.94782
H        -13.14494        5.84202        1.10328
H        -10.60574        4.59438        0.18835
H         -6.06945        6.69521        1.66752
H         -7.63847       10.15942        5.75408
H         -4.22259        7.88771        2.94412
H         -9.41176        8.98826        4.59274
