117

C         -3.10820        0.02798       -1.13428
O         -2.36946       -0.92929       -1.21577
C         -2.85269        1.23046       -0.33039
C         -3.77678        2.24153       -0.64659
C         -3.74348        3.41839        0.08982
C         -2.78319        3.56117        1.10512
C         -1.87103        2.53212        1.38562
C         -1.89328        1.34587        0.66318
Br        -0.62504        2.74633        2.79048
C         -4.66222        1.74104       -1.73739
C         -5.41908        2.49236       -2.57096
C         -5.50955        3.91040       -2.45980
N         -5.58720        5.06465       -2.36327
C         -6.13134        1.93205       -3.66876
N         -6.71783        1.48009       -4.56441
C         -4.41744        0.28153       -1.82593
C         -5.24853       -0.70244       -2.20949
C         -5.00201       -2.13930       -2.02179
C         -4.37806       -2.90562       -3.01803
C         -4.22259       -4.27329       -2.80418
C         -4.63585       -4.86135       -1.59079
C         -5.24739       -4.10912       -0.60162
C         -5.44292       -2.74614       -0.82747
C         -4.39391       -6.28210       -1.63931
C         -3.89760       -6.63281       -2.90999
C         -3.67261       -5.36441       -3.75403
C         -4.44909       -5.40082       -5.09602
C         -5.96739       -5.53807       -4.98016
C         -2.15512       -5.09411       -3.97570
C         -1.38590       -6.14900       -4.76705
C         -3.72191       -7.97258       -3.25176
C         -3.99855       -8.96482       -2.29706
C         -4.39471       -8.58006       -0.99893
C         -4.61602       -7.24296       -0.67106
C         -3.86948      -10.38717       -2.66526
C         -4.64946      -11.33533       -2.12285
C         -4.57527      -12.69104       -2.50979
N         -5.72309      -13.43671       -2.37509
C         -5.49587      -14.72723       -2.78013
C         -4.18121      -14.81674       -3.17472
C         -3.60101      -13.53180       -3.01135
C         -6.49220      -15.73631       -2.76827
C         -7.37446      -16.54408       -2.73726
C         -8.44800      -17.47278       -2.67640
C         -8.60420      -18.42208       -3.60855
C         -9.70250      -19.32489       -3.55876
C        -10.41962      -19.80338       -2.47746
C        -11.47450      -20.68393       -2.85355
C        -11.55253      -20.87530       -4.22015
S        -10.32039      -19.98144       -5.01739
C        -12.50894      -21.69919       -4.98492
C        -13.80775      -21.92700       -4.48567
C        -14.67809      -22.74155       -5.20329
C        -14.27020      -23.33871       -6.41273
C        -13.01102      -23.10946       -6.93095
C        -12.13590      -22.29373       -6.21265
C        -15.32271      -24.19172       -6.90665
C        -16.41837      -24.14654       -6.02101
C        -16.13083      -23.13806       -4.89564
C        -16.30003      -23.77375       -3.48761
C        -15.39641      -24.96365       -3.16715
C        -17.07441      -21.90114       -5.01457
C        -16.96215      -21.08309       -6.30448
C        -17.52583      -24.96696       -6.21915
C        -17.52682      -25.85016       -7.31298
C        -16.45035      -25.82675       -8.22458
C        -15.34174      -25.00530       -8.02294
C        -18.65321      -26.77869       -7.49913
C        -18.54249      -27.97561       -8.09368
H         -4.44481        4.23238       -0.06369
H         -2.76183        4.48139        1.68746
H         -1.21668        0.52407        0.87664
H         -6.24618       -0.49998       -2.58855
H         -4.03913       -2.44537       -3.94022
H         -5.59676       -4.56828        0.31694
H         -5.95309       -2.16153       -0.06526
H         -4.09443       -6.23585       -5.71203
H         -4.23755       -4.48640       -5.66554
H         -6.25197       -6.47678       -4.49608
H         -6.41595       -5.53279       -5.97933
H         -6.41153       -4.70987       -4.42065
H         -1.64968       -4.97373       -3.00735
H         -2.03322       -4.13508       -4.49735
H         -1.31297       -7.09114       -4.21745
H         -0.35966       -5.80844       -4.94129
H         -1.83820       -6.34412       -5.74272
H         -3.39951       -8.24629       -4.25214
H         -4.55694       -9.32572       -0.22488
H         -4.96289       -6.97659        0.32054
H         -3.15483      -10.62538       -3.44841
H         -5.39933      -11.06792       -1.38270
H         -6.61300      -13.08902       -2.04891
H         -3.69160      -15.70991       -3.53960
H         -2.57464      -13.26117       -3.22163
H         -9.15219      -17.35658       -1.85855
H         -7.90554      -18.49238       -4.44121
H        -10.19752      -19.53986       -1.45063
H        -12.13732      -21.16058       -2.14240
H        -14.13572      -21.47666       -3.55398
H        -12.69242      -23.56196       -7.86349
H        -11.13924      -22.14601       -6.62242
H        -17.34034      -24.10134       -3.35792
H        -16.12559      -23.01060       -2.71776
H        -15.54942      -25.79342       -3.86289
H        -15.62042      -25.33427       -2.16028
H        -14.33866      -24.68549       -3.18162
H        -16.88601      -21.21561       -4.17733
H        -18.11793      -22.22805       -4.91527
H        -15.98851      -20.58903       -6.38402
H        -17.72379      -20.29589       -6.31469
H        -17.11445      -21.69735       -7.19639
H        -18.35514      -24.94797       -5.51853
H        -16.45567      -26.46768       -9.10244
H        -14.51065      -25.03238       -8.71830
H        -19.61480      -26.47003       -7.09758
H        -17.60068      -28.35112       -8.48218
H        -19.40258      -28.62903       -8.19416
