82

C         -0.52968       -6.97355       -1.94928
C          0.42936       -6.28505       -2.84129
O          0.33096       -5.16309       -3.28845
C          1.50942       -7.25860       -3.04703
C          1.23639       -8.43947       -2.35651
C         -0.06335       -8.35428       -1.68981
O         -0.62705       -9.21719       -1.05382
C          2.14664       -9.47419       -2.32130
C          3.35249       -9.32864       -3.00649
C          3.61631       -8.15247       -3.73138
C          2.68476       -7.11143       -3.75165
F          2.95541       -5.99668       -4.43784
F          1.91258      -10.58982       -1.62245
C         -1.62593       -6.46327       -1.38447
N         -2.12746       -5.18303       -1.47196
C         -3.25568       -4.68737       -0.87861
S         -3.98643       -5.42601        0.50831
C         -5.16342       -4.22971        0.60508
N         -6.11744       -4.28914        1.65837
O         -6.15782       -3.31174        2.41530
O         -6.83466       -5.29483        1.71253
C         -5.06660       -3.26968       -0.36604
C         -3.97692       -3.55401       -1.25064
C         -3.64740       -2.77381       -2.40574
C         -4.51039       -2.04322       -3.13288
C         -4.18029       -1.25159       -4.30810
C         -3.07974       -0.51468       -4.52860
C         -2.83591        0.27402       -5.71458
C         -1.64545        0.89416       -5.71237
C         -0.85946        0.65045       -4.51591
S         -1.75731       -0.36081       -3.40729
C          0.36628        1.12262       -4.22888
C          1.17717        1.98050       -5.06687
C          2.33575        2.35279       -4.50479
C          2.52466        1.81983       -3.18021
S          1.21118        0.77244       -2.72009
C          3.52980        2.06132       -2.33248
N          4.63328        2.87386       -2.45136
C          5.62248        3.06134       -1.53431
S          7.22944        3.35725       -2.09341
C          7.83734        3.46934       -0.51564
N          9.23661        3.70403       -0.27649
O          9.56901        3.88105        0.90400
O         10.00731        3.71000       -1.24473
C          6.85875        3.34642        0.44158
C          5.58267        3.08205       -0.14442
C          4.40421        2.94281        0.65793
C          3.96660        1.76452        1.12931
C          2.80509        1.62932        1.97739
C          1.99172        0.56467        2.01037
C          0.82991        0.48444        2.93271
O          0.54938        1.24549        3.83381
C          0.10340       -0.71864        2.52476
C          0.76858       -1.35655        1.47955
C          1.99167       -0.63579        1.14196
O          2.82903       -0.96870        0.31697
C          0.24886       -2.49312        0.90055
C         -0.95627       -2.99556        1.38678
C         -1.63002       -2.35612        2.44087
C         -1.08730       -1.20949        3.01851
F         -1.73046       -0.60826        4.02455
F          0.86238       -3.11602       -0.11069
H          4.08870      -10.12788       -2.96650
H          4.55530       -8.03905       -4.26801
H         -2.22823       -7.12811       -0.76782
H         -1.57246       -4.57626       -2.08699
H         -5.74159       -2.42567       -0.45080
H         -2.60354       -2.80211       -2.70526
H         -5.57074       -2.06135       -2.89130
H         -4.97457       -1.23260       -5.05370
H         -3.55285        0.35543       -6.52041
H         -1.30739        1.52688       -6.52011
H          0.87587        2.28976       -6.05624
H          3.06367        2.98015       -4.99500
H          3.50908        1.52035       -1.39178
H          4.76536        3.26820       -3.37827
H          7.03829        3.43747        1.50731
H          3.84937        3.85523        0.86693
H          4.49262        0.85046        0.85237
H          2.58806        2.46960        2.63719
H         -1.36633       -3.89182        0.93716
H         -2.57645       -2.74473        2.80870
