101

C         -2.17443       -1.09650       -1.62107
C         -2.55574       -1.04414       -2.98459
C         -3.33134        0.15105       -3.47833
C         -2.19886       -2.09065       -3.87557
C         -2.48888       -2.01296       -5.35088
C         -1.52135       -3.20877       -3.38365
C         -1.20371       -3.23697       -2.03720
C         -1.48761       -2.20149       -1.13966
C         -0.89419       -2.56312        0.18430
C         -1.24133       -2.06172        1.39222
C         -2.21727       -1.03581        1.54251
N         -3.01169       -0.20229        1.66536
C         -0.71115       -2.57356        2.61213
N         -0.26606       -2.98927        3.60033
C          0.01043       -3.70961       -0.07403
C         -0.47322       -4.30892       -1.36172
O         -0.38124       -5.45073       -1.76028
C          1.15101       -4.04701        0.55594
C          2.07684       -5.03292        0.09351
C          2.40357       -5.43747       -1.20357
C          3.33649       -6.48350       -1.21081
C          3.75858       -6.78711        0.05973
S          3.06059       -5.88286        1.26410
C          4.66498       -7.86097       -0.01894
C          4.79156       -8.24870       -1.33383
C          3.98589       -7.36551       -2.17508
C          3.87695       -7.34633       -3.51809
C          4.59846       -8.25636       -4.33796
N          5.18589       -8.99057       -5.01694
C          3.06140       -6.39345       -4.19560
N          2.41537       -5.60800       -4.75393
C          5.60133       -9.39621       -1.45730
C          6.07427       -9.82332       -0.21253
S          5.55292       -8.74578        1.05954
C          6.88290      -10.99698        0.13891
C          6.79508      -11.64403        1.38682
C          7.55867      -12.77171        1.74044
F          7.37175      -13.22068        2.99256
C          8.48135      -13.41795        0.88986
C          8.61235      -12.82106       -0.39876
C          7.80361      -11.58065       -0.78032
N          8.08301      -11.15368       -2.02399
S          9.19348      -12.19271       -2.66946
N          9.40182      -13.23754       -1.40537
C          9.26818      -14.60018        1.27207
C         10.55832      -14.99500        0.89222
C         10.96685      -16.15966        1.58152
C          9.97836      -16.61102        2.42109
S          8.56685      -15.75396        2.37832
C         10.47554      -17.68173        3.18226
C         11.78980      -17.90071        2.85041
C         12.14100      -17.02439        1.72943
C         13.23462      -17.08036        0.94599
C         14.23875      -18.06574        1.14811
N         15.04606      -18.88511        1.30962
C         13.39415      -16.21644       -0.17238
N         13.52187      -15.51740       -1.08929
C         12.39003      -18.82947        3.73323
C         11.48928      -19.24910        4.72251
S          9.87196      -18.68599        4.34568
C         11.72926      -20.09985        5.84711
C         11.08545      -20.03191        7.02508
C         11.11707      -21.24191        7.91510
O         11.96566      -22.10642        7.96738
C          9.83174      -21.20947        8.64651
C          9.13562      -20.03003        8.34830
C          7.82165      -19.89686        8.76582
C          7.23408      -20.91299        9.54892
C          7.99067      -22.05679        9.92112
C          9.30301      -22.20941        9.44319
C          7.45683      -23.09415       10.87374
C          5.80109      -20.73739        9.98428
C         10.04223      -19.15280        7.57092
C         10.05362      -17.79725        7.61210
C         11.14375      -17.03649        7.08996
N         12.03386      -16.41367        6.68254
C          9.02976      -17.04279        8.24764
N          8.18110      -16.43157        8.75828
H         -2.41986       -0.25274       -0.98312
H         -3.64433        0.79608       -2.65080
H         -4.24314       -0.17476       -3.98971
H         -2.71987        0.74576       -4.16314
H         -3.55145       -1.82814       -5.53054
H         -2.23269       -2.94994       -5.85793
H         -1.89361       -1.21555       -5.80779
H         -1.21898       -4.02823       -4.03135
H          1.46131       -3.51325        1.45048
H          1.94030       -5.01987       -2.08619
H          5.81035       -9.92575       -2.37934
H          6.10351      -11.28154        2.14767
H         11.16457      -14.42641        0.19632
H         13.43172      -19.13087        3.73001
H         12.44339      -20.90886        5.68862
H          7.22464      -19.03235        8.48760
H          9.89393      -23.09183        9.67488
H          6.37425      -23.21692       10.79015
H          7.70162      -22.80516       11.90108
H          7.90102      -24.07448       10.67113
H          5.32738      -19.89378        9.46982
H          5.75187      -20.55075       11.06068
H          5.21080      -21.62443        9.73323
