91

C          1.94632        1.44675        3.55878
C          3.23327        1.42795        4.38471
C          1.91939        0.28255        2.56606
C          1.66809        2.78277        2.91425
C          0.50298        3.25144        3.39853
C         -0.02708        2.31344        4.37324
C         -1.14072        2.34377        5.13451
C         -2.08328        3.40606        5.11984
N         -2.86473        4.26260        5.12722
C         -1.41424        1.26086        6.02355
N         -1.64219        0.38202        6.74653
O          0.84700        1.22766        4.47938
C         -0.10720        4.47210        3.00970
N         -0.60468        5.46327        2.67226
C          2.45507        3.51276        1.96844
C          2.42926        3.47566        0.57047
C          3.37243        4.37072        0.00715
C          4.05780        5.05602        0.98395
S          3.64604        4.65214        2.54221
C          4.95745        5.95335        0.36793
C          4.86620        5.82558       -0.99707
C          3.84419        4.82102       -1.31021
C          3.41922        4.42175       -2.52490
C          3.96554        4.95220       -3.72494
N          4.41372        5.37646       -4.70756
C          2.39528        3.44725       -2.66817
N          1.56528        2.64207       -2.76266
C          5.76452        6.69944       -1.66129
C          6.48892        7.49924       -0.76174
S          6.00161        7.12810        0.88272
C          7.50312        8.56980       -1.01770
C          8.58568        8.88310       -0.15708
C          9.51151        9.96865       -0.41783
N         10.47239       10.24557        0.49032
C         10.59028        9.47509        1.58862
C          9.74475        8.42502        1.81337
N          8.75553        8.12561        0.94932
F          9.88178        7.66099        2.90518
F         11.57408        9.75562        2.45328
C          9.45928       10.76225       -1.59119
C          8.40402       10.45742       -2.50028
C          7.40274        9.36017       -2.20177
N          6.46116        9.26298       -3.15808
S          6.80951       10.37219       -4.32954
N          8.16636       11.05222       -3.68340
C         10.41104       11.86704       -1.92337
C         10.20639       13.05012       -2.65253
C         11.37963       13.83998       -2.72823
C         12.41626       13.26715       -2.03226
S         12.08726       11.76794       -1.41655
C         13.53820       14.12176       -2.07870
C         13.22455       15.22758       -2.83592
C         11.84098       15.10171       -3.31307
C         11.16792       15.92743       -4.13799
C         11.77347       17.09901       -4.66579
N         12.28688       18.04659       -5.09528
C          9.83440       15.65720       -4.55058
N          8.74658       15.44157       -4.89242
C         14.31915       16.12094       -2.92042
C         15.41803       15.65205       -2.19440
S         15.07303       14.11836       -1.44243
C         16.70607       16.24422       -2.01655
C         16.98191       17.08767       -1.00531
C         18.36147       17.53077       -1.11381
C         19.09417       18.37463       -0.35728
C         18.59448       19.04554        0.79015
N         18.20683       19.60560        1.72847
C         20.45083       18.63385       -0.70757
N         21.55859       18.84900       -0.98851
O         18.94565       16.92823       -2.23288
C         17.94734       16.08218       -2.85711
C         17.76502       16.58370       -4.29034
C         18.50340       14.65676       -2.84737
C         16.06102       17.47567        0.00290
N         15.29671       17.78516        0.81762
H          4.12352        1.52367        3.75515
H          3.31255        0.49399        4.95383
H          3.24204        2.23785        5.12385
H          2.77848        0.29960        1.88870
H          1.00264        0.29602        1.96432
H          1.91651       -0.67592        3.10000
H          1.74728        2.83710        0.02129
H          5.88575        6.77512       -2.73578
H          9.24973       13.30887       -3.09129
H         14.33945       17.06033       -3.46091
H         17.39105       17.61429       -4.30438
H         17.07046       15.95568       -4.85732
H         18.72628       16.60022       -4.81782
H         18.64129       14.29196       -1.82252
H         19.49422       14.62696       -3.31655
H         17.84951       13.95828       -3.37893
