101

C         -2.03927        1.03128       -3.23125
C         -1.39025       -0.11837       -2.92153
C         -0.53015       -0.80000       -3.83044
N          0.17499       -1.36404       -4.56111
C         -1.47162       -0.72096       -1.63192
N         -1.54794       -1.22013       -0.58729
C         -1.93943        1.78833       -4.52116
C         -2.48692        3.05887       -4.32868
C         -2.61387        4.01875       -5.32578
C         -2.14096        3.69226       -6.61403
C         -1.56498        2.43124       -6.81838
C         -1.46457        1.45856       -5.78716
S         -1.02532        2.25432       -8.44972
C         -1.57066        3.80968       -8.88270
C         -2.15486        4.46337       -7.82435
C         -2.94709        3.22602       -2.94652
O         -3.23850        4.28424       -2.43020
C         -2.89163        1.85764       -2.33275
C         -3.65700        1.49803       -1.28653
C         -4.60279        2.36725       -0.66499
C         -4.43948        3.19781        0.44288
C         -5.65535        3.81965        0.80109
C         -6.66741        3.51631       -0.08187
S         -6.24180        2.43134       -1.26834
C         -7.82087        4.25099        0.28000
C         -7.54359        4.99826        1.40263
C         -6.16451        4.73490        1.82224
C         -5.52211        5.18659        2.91644
C         -4.18377        4.80486        3.21079
N         -3.09430        4.48898        3.45701
C         -6.16322        6.03612        3.85739
N         -6.69455        6.71857        4.63137
C         -8.64307        5.80508        1.77976
C         -9.72131        5.66641        0.89048
S         -9.34887        4.46368       -0.32937
C        -11.06651        6.41288        0.90824
C        -11.62729        6.53367       -0.53136
N        -10.80273        7.70997        1.36656
N        -11.39667        8.38101        2.53940
C        -12.26924        7.80092        3.44455
C        -12.57645        6.44428        3.02486
C        -11.98794        5.78653        1.84699
N        -12.51051        4.54891        1.77391
O        -13.35946        4.41606        2.84995
N        -13.40107        5.56043        3.61517
C        -11.56801        7.81890        4.84193
C        -13.54380        8.62881        3.63486
C        -14.38392        8.75482        4.75133
C        -15.44241        9.65754        4.51161
C        -15.42293       10.12873        3.21833
S        -14.16075        9.57445        2.29261
C        -16.53799       10.97326        3.02531
C        -17.23723       11.06362        4.20779
C        -16.59501       10.22112        5.21680
C        -17.00483        9.98587        6.47705
C        -16.27393        9.14326        7.35068
N        -15.67372        8.46408        8.06795
C        -18.19889       10.57632        6.98976
N        -19.18012       11.05833        7.38157
C        -18.37866       11.88292        4.08485
C        -18.60172       12.22265        2.75229
S        -17.23166       11.78637        1.75452
C        -19.70958       12.85632        2.13421
C        -21.00686       12.65494        2.41256
C        -21.83569       11.83907        3.32986
C        -21.59602       10.61081        3.86015
C        -22.51834        9.92857        4.70764
N        -23.25066        9.34952        5.39705
C        -20.45539        9.80618        3.57951
N        -19.56970        9.07171        3.42405
C        -23.18760       12.50284        3.36815
C        -23.24081       13.46922        2.36280
C        -21.93708       13.60874        1.71110
O        -21.68148       14.37977        0.80843
C        -24.37774       14.20223        2.03415
C        -25.56030       13.93814        2.75815
C        -25.51145       13.00342        3.79910
C        -24.32849       12.29801        4.13783
S        -27.04968       12.83607        4.56355
C        -27.77930       13.95886        3.51116
C        -26.88046       14.48257        2.61221
H         -3.07727        4.97865       -5.11558
H         -1.03326        0.49506       -6.03244
H         -1.44059        4.17336       -9.89318
H         -2.57124        5.46073       -7.90462
H         -3.66404        0.48281       -0.90550
H         -3.48379        3.32227        0.93671
H         -8.67180        6.49695        2.61413
H        -10.92163        7.08043       -1.16807
H        -12.58700        7.06143       -0.52045
H        -11.78390        5.55147       -0.98925
H        -10.57934        7.35292        4.77241
H        -12.15486        7.26993        5.58767
H        -11.46609        8.84841        5.20611
H        -14.21164        8.22076        5.67732
H        -19.09200       12.11028        4.86615
H        -19.45206       13.58579        1.36154
H        -24.35458       14.93467        1.23177
H        -24.37349       11.60931        4.97199
H        -28.83252       14.18639        3.60436
H        -27.15624       15.21872        1.86660
