115

C         -5.86153       -0.98229       -0.74338
C         -5.37366       -1.17871       -2.03221
F         -4.56702       -0.25603       -2.57340
C         -5.70220       -2.32251       -2.74537
F         -5.19360       -2.52451       -3.96803
C         -6.55831       -3.27267       -2.20000
C         -7.08396       -3.08444       -0.91464
C         -6.70093       -1.93833       -0.15264
C         -7.12848       -1.79536        1.18571
C         -7.93366       -2.77143        1.75515
C         -8.35447       -3.84065        0.95169
C         -7.95324       -4.02593       -0.36090
C         -9.08417       -4.82693        1.75608
O         -9.75334       -5.75145        1.32170
C         -8.76003       -4.47084        3.17410
C         -8.37426       -3.04145        3.15657
C         -8.51839       -2.13684        4.15252
C         -9.04194       -2.48494        5.43092
N         -9.43691       -2.75030        6.48910
C         -8.19727       -0.75487        3.98125
N         -7.91743        0.36335        3.82689
C         -8.56109       -5.40156        4.12521
C         -8.79235       -6.83762        3.99743
C         -9.68030       -7.55334        4.73296
N        -10.51271       -6.99821        5.77542
O        -10.83415       -7.76586        6.69292
O        -10.86880       -5.81686        5.68338
C         -9.77530       -8.92941        4.30234
C         -8.96796       -9.10397        3.24540
C         -8.28474       -7.83308        2.98332
C         -7.38178       -7.63881        1.99699
C         -6.39834       -6.55163        1.98276
C         -5.69434       -6.64248        0.84567
C         -6.20078       -7.76554        0.08924
N         -5.72096       -8.08228       -1.23927
O         -6.50669       -8.57074       -2.05991
O         -4.54287       -7.78623       -1.48313
C         -7.19031       -8.42227        0.73774
C         -7.87836       -9.58577        0.21097
C         -9.19641       -9.70602       -0.03171
C         -9.73178      -10.85905       -0.70461
S        -11.14905      -10.63321       -1.68752
C        -11.08332      -12.21249       -2.37372
C        -10.00098      -12.89917       -1.86323
C         -9.32961      -12.18545       -0.80144
C         -8.28841      -12.75387       -0.04945
C         -7.89688      -14.03946       -0.49761
C         -6.73523      -14.71741        0.17986
C         -8.50824      -14.68821       -1.61744
C         -9.60310      -14.16090       -2.32945
C        -12.03162      -12.57424       -3.37462
C        -12.70905      -13.72975       -3.30824
C        -13.44113      -14.28903       -4.39971
S        -14.79772      -15.27640       -4.04370
C        -14.99960      -15.82429       -5.67860
C        -13.89621      -15.40265       -6.41056
C        -13.22077      -14.28780       -5.76818
C        -12.27379      -13.45329       -6.58919
F        -12.28721      -12.14942       -6.18993
C        -12.74818      -13.41065       -8.04205
C        -12.94978      -14.78068       -8.69044
C        -13.34230      -15.90322       -7.72167
F        -12.17222      -16.57026       -7.44061
C        -16.06605      -16.73321       -5.99444
C        -17.31748      -16.64738       -5.50017
C        -18.14478      -17.90206       -5.44530
O        -18.07000      -18.87658       -6.16267
C        -19.01386      -17.73939       -4.25584
C        -19.86909      -18.68425       -3.70950
C        -20.57662      -18.34231       -2.54527
C        -20.34066      -17.08041       -1.91843
C        -21.04239      -16.74292       -0.75291
C        -21.99350      -17.61389       -0.23553
C        -22.23815      -18.83360       -0.84995
C        -21.52826      -19.21071       -1.98782
F        -23.17422      -19.65684       -0.35863
F        -22.68670      -17.25335        0.85296
C        -19.44094      -16.16279       -2.48547
C        -18.82717      -16.46742       -3.68981
C        -17.99050      -15.67459       -4.62465
C        -18.10454      -14.33706       -4.82378
C        -17.67546      -13.73769       -6.04281
N        -17.40426      -13.26365       -7.07072
C        -18.76239      -13.47259       -3.89683
N        -19.27194      -12.79233       -3.10907
H         -5.56874       -0.07999       -0.21228
H         -6.79145       -4.15874       -2.78554
H         -6.76211       -0.95014        1.76157
H         -8.25998       -4.91723       -0.90274
H         -8.19032       -5.10612        5.10616
H        -10.39505       -9.67896        4.77145
H         -8.79392      -10.04486        2.74888
H         -6.20380       -5.84796        2.77499
H         -4.86872       -6.01839        0.53783
H         -7.19913      -10.37018       -0.11677
H         -9.86675       -8.87189        0.17463
H         -7.80669      -12.27748        0.79291
H         -6.87363      -15.80320        0.19045
H         -6.64606      -14.38940        1.22060
H         -5.80735      -14.47797       -0.34826
H         -8.11251      -15.65158       -1.94320
H        -10.04122      -14.68576       -3.16903
H        -12.12559      -11.89159       -4.20485
H        -12.63543      -14.33921       -2.40678
H        -11.24806      -13.82532       -6.50507
H        -12.06248      -12.79690       -8.63774
H        -13.70742      -12.87290       -8.07232
H        -12.02247      -15.05687       -9.20962
H        -13.72230      -14.68083       -9.46029
H        -13.99026      -16.63126       -8.21406
H        -15.79887      -17.61420       -6.57951
H        -19.99059      -19.65141       -4.19083
H        -20.88438      -15.79078       -0.25191
H        -21.74989      -20.17333       -2.44079
H        -19.26073      -15.21817       -1.98032
