120

C         -3.52713       -0.10745        3.31244
C         -2.16872       -0.39313        3.20624
F         -1.29435        0.32382        3.92389
C         -1.71963       -1.41916        2.38542
F         -0.41262       -1.70351        2.31157
C         -2.61828       -2.17822        1.64900
C         -3.98826       -1.92088        1.75454
C         -4.46100       -0.87002        2.60367
C         -5.84323       -0.64728        2.76983
C         -6.74127       -1.49308        2.14247
C         -6.23504       -2.52434        1.33863
C         -4.89386       -2.73609        1.08761
C         -7.28689       -3.47620        0.99665
O         -7.15103       -4.42026        0.24920
C         -8.48047       -3.04762        1.79847
C         -8.21566       -1.66682        2.25150
C         -9.12494       -0.71414        2.56035
C         -8.74877        0.62561        2.87701
N         -8.43132        1.71290        3.13055
C        -10.52475       -0.96269        2.50383
N        -11.66354       -1.19783        2.44317
C         -9.44061       -3.89811        2.19433
C         -9.49096       -5.32086        1.91820
C         -9.34453       -6.29325        2.85424
N         -9.10326       -6.05380        4.26101
O         -8.46518       -5.04289        4.58917
O         -9.53773       -6.90208        5.05119
C         -9.47702       -7.61468        2.29986
C         -9.71192       -7.49303        0.98683
C         -9.71844       -6.06578        0.63260
C         -9.90721       -5.56811       -0.61478
C        -10.00035       -4.14364       -0.95347
C        -10.20489       -4.02760       -2.27123
C        -10.28192       -5.35354       -2.82749
N        -10.54294       -5.58597       -4.22304
O        -11.22250       -6.56980       -4.53818
O        -10.10740       -4.74120       -5.01929
C        -10.08240       -6.31640       -1.90247
C         -9.98372       -7.73773       -2.15915
C         -8.84909       -8.43884       -1.99282
C         -8.79341       -9.88152       -2.04014
C         -8.44884      -10.57606       -0.93521
C         -8.59113      -11.99702       -1.14749
O         -8.19619      -12.76366       -0.09950
C         -8.21969      -14.17685       -0.20747
C         -9.05487      -12.23396       -2.40091
C         -9.19792      -10.88634       -3.05013
C         -9.57680      -10.63519       -4.32405
C         -9.43155       -9.36877       -5.03790
C         -9.86195       -9.56296       -6.29886
O         -9.88176       -8.75747       -7.39112
C         -9.08074       -7.58712       -7.28790
C        -10.33205      -10.91730       -6.45030
C        -10.17085      -11.56355       -5.28609
C         -9.18962      -13.53372       -3.01054
C         -8.42756      -13.88024       -4.05604
C         -8.60939      -15.07502       -4.78988
S         -7.24210      -15.70427       -5.62945
C         -8.10767      -17.03403       -6.33386
C         -9.41260      -16.94159       -5.92016
C         -9.68991      -15.86984       -5.06709
C        -11.09296      -15.91073       -4.76885
O        -11.72510      -15.13133       -4.07550
O        -11.63042      -17.00438       -5.42198
C        -10.63903      -17.65291       -6.13474
O        -10.80418      -18.63953       -6.83259
C         -7.47607      -17.99118       -7.18207
C         -6.15308      -17.98591       -7.40841
C         -5.47584      -18.94722       -8.23626
C         -4.41239      -19.67344       -7.86769
C         -3.58100      -20.25755       -8.96461
O         -3.88132      -20.41960      -10.12849
C         -2.27068      -20.53121       -8.35911
C         -1.16205      -21.01583       -9.03348
C          0.00633      -21.23794       -8.29677
C          0.03909      -20.92465       -6.90366
C          1.21159      -21.17568       -6.17976
C          2.31887      -21.73504       -6.81079
C          2.28445      -22.03301       -8.16534
C          1.14073      -21.78377       -8.91556
F          3.35401      -22.57426       -8.76377
F          3.41965      -21.99140       -6.09166
C         -1.10227      -20.39406       -6.26859
C         -2.27957      -20.22820       -6.98814
C         -3.67500      -19.85168       -6.60516
C         -4.19374      -19.95273       -5.35560
C         -5.59668      -20.00432       -5.10327
N         -6.72382      -20.11058       -4.84768
C         -3.39202      -20.14612       -4.19335
N         -2.73779      -20.28532       -3.24473
H         -3.83978        0.69219        3.97875
H         -2.23804       -2.98694        1.03002
H         -6.17637        0.12596        3.45645
H         -4.58101       -3.57460        0.47096
H        -10.19055       -3.57722        2.91566
H         -9.42285       -8.53458        2.86255
H         -9.89911       -8.33130        0.34361
H         -9.91331       -3.29873       -0.30088
H        -10.28869       -3.11169       -2.83552
H        -10.90445       -8.23702       -2.46156
H         -7.93978       -7.94223       -1.65576
H         -8.14900      -10.16641        0.01777
H         -7.78625      -14.58608        0.71126
H         -7.60237      -14.52682       -1.03949
H         -9.24649      -14.54637       -0.28214
H         -8.99881       -8.46553       -4.65310
H         -9.22844       -6.99061       -8.19207
H         -8.02220       -7.86068       -7.22499
H         -9.36270       -6.97188       -6.43219
H        -10.75917      -11.31213       -7.35781
H        -10.49459      -12.57253       -5.10485
H         -9.95590      -14.18211       -2.59965
H         -7.66114      -13.18739       -4.40741
H         -8.09628      -18.77891       -7.60877
H         -5.49741      -17.22820       -6.98426
H         -5.78780      -18.93966       -9.28279
H         -1.22680      -21.23067      -10.09709
H          1.27384      -20.96379       -5.11681
H          1.14633      -22.03409       -9.97304
H         -1.03155      -20.14615       -5.21692
