108

C         -3.79390       -2.58465       -5.19214
C         -2.72396       -3.16949       -4.51558
F         -1.62112       -2.44434       -4.28200
C         -2.79682       -4.48315       -4.07913
F         -1.77970       -5.02840       -3.39813
C         -3.92320       -5.25191       -4.34612
C         -4.99863       -4.69744       -5.05094
C         -4.96153       -3.32422       -5.45273
C         -6.09405       -2.73325       -6.06738
C         -7.23188       -3.50372       -6.28062
C         -7.19844       -4.86276       -5.93502
C         -6.11836       -5.47968       -5.33502
C         -8.52539       -5.46360       -6.11890
O         -8.78754       -6.63729       -6.26205
C         -9.45363       -4.29304       -6.15402
C         -8.63019       -3.19427       -6.71542
C         -9.00059       -2.26579       -7.61802
C        -10.33799       -2.17551       -8.08596
N        -11.43122       -2.09570       -8.48496
C         -8.04478       -1.41729       -8.26261
N         -7.24937       -0.74817       -8.77256
C        -10.62132       -4.28238       -5.47779
C        -11.15332       -5.39875       -4.67255
C        -12.31523       -6.07153       -4.85936
N        -13.33772       -5.71593       -5.82461
O        -14.14376       -6.59892       -6.12695
O        -13.36830       -4.55681       -6.24879
C        -12.40624       -7.26036       -4.03218
C        -11.26674       -7.39719       -3.33549
C        -10.44080       -6.22167       -3.61778
C         -9.31318       -5.91498       -2.94351
C         -8.93844       -4.53655       -2.65750
C         -7.82240       -4.57502       -1.92418
C         -7.38706       -5.95593       -1.78892
N         -6.04116       -6.21194       -1.30002
O         -5.53758       -5.32625       -0.59336
O         -5.42839       -7.21650       -1.67313
C         -8.28758       -6.82986       -2.31087
C         -8.20969       -8.27306       -2.53760
C         -7.40484       -9.17005       -1.94756
C         -7.31418      -10.59203       -2.25538
N         -7.80052      -11.08456       -3.41221
N         -7.80597      -12.42685       -3.57187
C         -7.37017      -13.19291       -2.55073
N         -6.80024      -12.68750       -1.43704
N         -6.75619      -11.35583       -1.29473
C         -7.67387      -14.62952       -2.52181
C         -6.70865      -15.46873       -1.92314
C         -6.99130      -16.80536       -1.79459
C         -8.17861      -17.34956       -2.22739
C         -8.13384      -18.77839       -1.91555
O         -9.04964      -19.54585       -2.14153
N         -6.91438      -19.01297       -1.33858
C         -6.19206      -17.86220       -1.19718
O         -5.10699      -17.68005       -0.68124
C         -6.45613      -20.30030       -0.85710
C         -5.21548      -20.77325       -1.60057
C         -9.16767      -16.57506       -2.80680
C         -8.92425      -15.19421       -2.97058
C        -10.01717      -14.32053       -3.45169
C        -11.10647      -14.61712       -4.17241
C        -12.12777      -13.62478       -4.47167
C        -12.94301      -13.06087       -3.56481
C        -14.22910      -12.39991       -3.98646
O        -14.47669      -11.84861       -5.03710
C        -15.14754      -12.59920       -2.83546
C        -16.43121      -12.11538       -2.66383
C        -17.06349      -12.37458       -1.43334
C        -16.45025      -13.24876       -0.48097
C        -17.06356      -13.50653        0.74648
C        -18.23836      -12.85319        1.06823
C        -18.82876      -11.97244        0.17502
C        -18.26731      -11.75059       -1.08207
F        -19.93494      -11.30049        0.52388
F        -18.77779      -13.04446        2.28575
C        -15.18501      -13.77932       -0.72019
C        -14.49850      -13.33915       -1.83325
C        -13.05003      -13.29577       -2.12367
C        -12.18694      -12.92340       -1.14428
C        -11.09937      -12.04211       -1.38990
N        -10.26596      -11.24593       -1.51244
C        -12.43359      -13.13516        0.24278
N        -12.63130      -13.31602        1.36976
H         -3.69778       -1.54809       -5.50581
H         -3.94789       -6.27744       -3.98439
H         -6.07278       -1.67290       -6.31015
H         -6.18254       -6.52534       -5.04644
H        -11.21401       -3.36932       -5.43246
H        -13.26990       -7.90461       -3.98018
H        -11.08097       -8.15128       -2.58617
H         -9.53518       -3.65628       -2.83948
H         -7.33025       -3.73767       -1.45223
H         -8.90800       -8.66383       -3.27989
H         -6.72431       -8.91547       -1.14793
H         -5.76683      -15.07890       -1.53923
H         -7.25907      -21.03597       -0.96443
H         -6.22337      -20.19430        0.20831
H         -5.40625      -20.84304       -2.67618
H         -4.90454      -21.75619       -1.23577
H         -4.37631      -20.08406       -1.45835
H        -10.10954      -17.03834       -3.08591
H         -9.91157      -13.27887       -3.18338
H        -11.27035      -15.60936       -4.58569
H        -12.31691      -13.46203       -5.53335
H        -16.88658      -11.49131       -3.42823
H        -16.61096      -14.16360        1.48507
H        -18.75367      -11.04485       -1.75028
H        -14.71566      -14.42736        0.01484
