112

C          4.22624        4.87088       -5.10455
N          4.59684        5.71947       -4.06616
C          5.95177        6.16319       -3.81279
C          6.51239        7.02159       -4.93545
C          3.50154        6.04465       -3.23349
O          3.44284        6.72587       -2.22986
C          2.39084        5.31649       -3.88496
C          2.91764        4.61392       -5.02351
C          1.81067        3.87890       -5.65025
O          1.86869        3.16600       -6.63610
N          0.71222        4.21165       -4.83020
C         -0.62346        3.70734       -5.08104
C         -0.85596        2.35190       -4.43494
C          1.08657        5.06520       -3.79609
C          0.17722        5.54869       -2.79795
C          0.00892        6.85608       -2.54296
C         -0.84843        7.31499       -1.50349
S         -1.79534        8.71413       -1.76458
C         -2.54131        8.64466       -0.20050
C         -2.01294        7.59594        0.55306
C         -1.04905        6.85668       -0.21751
O         -0.35590        5.81435        0.30349
C         -2.34517        7.31193        1.95503
O         -3.10502        7.98422        2.63425
O         -1.72824        6.22199        2.48630
C         -3.52108        9.65858        0.04594
C         -4.70161        9.41683        0.64154
C         -5.76207       10.40721        0.73268
C         -6.26349       10.94737        1.86989
N         -5.83977       10.58993        3.19734
O         -5.65663       11.52613        3.99053
O         -5.76477        9.38914        3.47946
C         -7.21486       12.00286        1.61012
C         -7.31342       12.16712        0.28307
C         -6.39390       11.22525       -0.36150
C         -6.14699       11.15151       -1.68831
C         -5.58849        9.96982       -2.34529
C         -5.44925       10.24377       -3.64759
C         -5.89544       11.60213       -3.87921
N         -5.74020       12.24583       -5.17267
O         -5.34817       11.52947       -6.10534
O         -5.97536       13.45813       -5.27691
C         -6.34549       12.19697       -2.74541
C         -6.79974       13.57780       -2.62419
C         -6.41722       14.43435       -1.66190
C         -6.87842       15.78258       -1.60740
S         -7.53154       16.36802       -0.12985
C         -7.74535       17.96652       -0.73156
C         -7.32476       18.07340       -2.05298
C         -6.86674       16.79947       -2.54326
O         -6.40879       16.63882       -3.80875
C         -7.34563       19.32853       -2.81272
O         -7.71922       20.40360       -2.36253
O         -6.89024       19.23101       -4.09080
C         -8.31890       18.93095        0.14838
C         -7.54240       19.69323        0.93650
C         -8.06226       20.60429        1.91901
N         -7.73904       21.96201        2.03508
C         -6.98602       22.80180        1.12149
C         -5.71286       22.22039        0.53237
C         -8.44778       22.56538        3.10958
O         -8.47962       23.72556        3.46927
C         -9.16810       21.43093        3.71208
C         -8.88185       20.26675        2.92181
C         -9.58271       19.12171        3.52784
O         -9.60270       17.97302        3.13586
N        -10.19631       19.69859        4.65648
C        -10.99114       18.91583        5.58091
C        -12.43340       18.76319        5.12754
C         -9.96226       21.07469        4.72408
C        -10.48308       21.90081        5.77359
C        -11.24348       22.98406        5.56851
H          4.93334        4.50767       -5.83574
H          6.57626        5.27477       -3.66648
H          5.97129        6.73511       -2.87813
H          6.54302        6.47162       -5.88159
H          7.53291        7.33792       -4.69758
H          5.90091        7.91685       -5.08753
H         -0.75425        3.61280       -6.16481
H         -1.36517        4.43221       -4.72699
H         -0.13671        1.61189       -4.80080
H         -1.86358        1.99116       -4.66449
H         -0.75357        2.40752       -3.34637
H         -0.37986        4.78724       -2.25645
H          0.52532        7.60330       -3.14449
H          0.42171        5.61076       -0.25437
H         -1.11439        5.80966        1.84037
H         -3.33707       10.64140       -0.38768
H         -4.93740        8.44105        1.06264
H         -7.77533       12.52586        2.37062
H         -8.01403       12.82438       -0.20735
H         -5.40172        9.00645       -1.89751
H         -5.09326        9.56533       -4.40906
H         -7.47539       13.92111       -3.40771
H         -5.76665       14.11059       -0.85194
H         -6.12308       15.71657       -3.97379
H         -6.62214       18.30882       -4.30114
H         -9.40346       19.00517        0.18134
H         -6.46147       19.59658        0.89646
H         -6.70623       23.71189        1.66793
H         -7.66571       23.12143        0.32392
H         -5.09174       21.75060        1.30116
H         -5.12592       23.01317        0.05658
H         -5.93063       21.48526       -0.24628
H        -10.94885       19.36418        6.57808
H        -10.53990       17.91936        5.66035
H        -12.88270       19.73041        4.88210
H        -13.02960       18.29728        5.91892
H        -12.49780       18.12672        4.23878
H        -10.24916       21.60376        6.79315
H        -11.51822       23.31842        4.57263
H        -11.61223       23.56612        6.40705
