102

C         -0.85698       -2.47482       -0.73875
C         -1.59659       -2.25141       -1.90214
C         -1.00103       -1.64673       -3.00561
C          0.33121       -1.24040       -2.94481
C          1.07909       -1.41848       -1.77357
C          2.39314       -0.92776       -1.69411
C          3.08521       -1.04178       -0.50071
C          2.51783       -1.76837        0.55735
C          1.23287       -2.27998        0.51233
C          0.48218       -2.06758       -0.65355
C          3.50156       -1.92971        1.64867
O          3.33244       -2.50898        2.70019
C          4.76984       -1.30706        1.12533
C          4.38259       -0.49508       -0.03367
C          4.87700        0.71729       -0.38751
C          5.88092        1.37304        0.38671
N          6.67350        1.93245        1.02453
C          4.35032        1.47159       -1.47864
N          3.91374        2.06506       -2.37592
C          5.93645       -1.77163        1.60018
C          7.20830       -1.60869        0.97251
C          7.54941       -1.47575       -0.37731
C          8.94117       -1.34850       -0.55438
C          9.61804       -1.55963        0.62230
S          8.64961       -1.72024        1.96015
C         10.99535       -1.65204        0.33380
C         11.18679       -1.46065       -1.01751
C          9.89962       -1.18456       -1.64624
C          9.64468       -0.80293       -2.91251
C         10.67898       -0.64189       -3.87421
N         11.51685       -0.51118       -4.66601
C          8.31719       -0.50364       -3.32844
N          7.21678       -0.27071       -3.61719
C         12.53425       -1.64032       -1.38663
C         13.30997       -2.00922       -0.28493
S         12.36243       -2.04785        1.18060
C         14.72784       -2.36719       -0.24254
N         15.41466       -2.30930       -1.39493
C         16.70818       -2.67295       -1.31960
C         17.31805       -3.08825       -0.15778
C         16.51489       -3.12542        0.96045
N         15.22321       -2.76596        0.93359
C         17.02985       -3.59310        2.25038
C         16.26860       -3.65012        3.35652
C         16.79286       -4.13994        4.58185
C         17.80403       -5.07713        4.80026
C         18.01986       -5.28675        6.17306
C         17.17422       -4.52060        6.94249
S         16.12548       -3.56283        6.08461
C         17.44454       -4.77477        8.30226
C         18.47424       -5.68634        8.38780
C         18.87523       -6.09030        7.04166
C         19.77748       -7.02499        6.68530
C         20.51694       -7.75534        7.65386
N         21.12839       -8.34898        8.44183
C         20.02316       -7.34745        5.32199
N         20.22388       -7.60700        4.20805
C         18.82197       -5.95371        9.72679
C         17.94403       -5.31719       10.60300
S         16.83190       -4.27355        9.76171
C         17.87364       -5.40172       12.02022
C         17.14788       -6.33528       12.66024
C         16.87889       -6.48662       14.11231
C         17.69102       -6.11997       15.13362
C         17.38807       -6.39171       16.49701
N         17.14263       -6.60566       17.61365
C         18.94986       -5.48496       14.92534
N         19.97188       -4.96479       14.74889
C         15.62331       -7.28858       14.23035
C         15.31775       -7.81431       12.96890
C         14.22052       -8.62227       12.71344
C         13.35574       -8.91690       13.77030
C         12.22303       -9.71734       13.56213
C         11.35044      -10.00096       14.61216
C         11.60194       -9.48992       15.88190
C         12.72625       -8.69181       16.10766
C         13.61979       -8.38961       15.06453
C         14.75595       -7.57236       15.28157
C         16.27071       -7.33820       11.95757
O         16.30192       -7.71087       10.80360
H         -1.34549       -2.95048        0.10920
H         -2.64182       -2.54714       -1.94608
H         -1.57699       -1.47702       -3.91200
H          0.77212       -0.75835       -3.81579
H          2.83480       -0.44487       -2.56129
H          0.82690       -2.81489        1.36643
H          5.91408       -2.41330        2.48296
H          6.82182       -1.50545       -1.17722
H         12.95322       -1.56868       -2.38408
H         17.25916       -2.62566       -2.25448
H         18.36062       -3.37474       -0.13871
H         18.07182       -3.89361        2.26595
H         15.23063       -3.32072        3.33645
H         18.32161       -5.56680        3.98521
H         19.61425       -6.60705       10.07034
H         18.40575       -4.61898       12.54846
H         14.04039       -8.99148       11.70747
H         12.00661      -10.12360       12.57622
H         10.47343      -10.61929       14.43629
H         10.91998       -9.71269       16.69923
H         12.89668       -8.30617       17.11110
H         14.90937       -7.16619       16.27702
