89

C         -1.36534        0.33660        1.68495
O         -1.90643       -0.25139        0.77578
C         -1.67955        1.70074        2.14960
C         -0.62276        2.21062        2.90781
C         -0.77293        3.45406        3.52247
C         -1.98642        4.15219        3.35880
C         -3.03833        3.60645        2.59523
C         -2.88373        2.36800        1.96487
Br        -4.72851        4.45597        2.41016
Br        -2.12572        5.83745        4.23266
C          0.46019        1.18289        2.94446
C          1.77498        1.38447        3.18145
C          2.30291        2.66076        3.52211
N          2.71515        3.70056        3.81276
C          2.73491        0.33732        3.05532
N          3.50103       -0.52568        2.97301
C         -0.17789       -0.07748        2.50014
C          0.05058       -1.31129        2.98673
C         -0.82096       -2.42852        2.80008
C         -1.97410       -2.84202        3.46562
O         -2.58323       -2.16924        4.48706
C         -1.72964       -1.53199        5.43068
C         -2.59533       -3.98801        2.81512
O         -3.85131       -4.47235        3.02199
C         -4.18667       -4.77262        4.37003
C         -1.85786       -4.44701        1.73243
S         -0.36615       -3.58440        1.62878
C         -2.19949       -5.42690        0.70736
C         -2.96932       -6.58127        0.72780
C         -3.15498       -7.13552       -0.60929
N         -3.94196       -8.21877       -0.87603
C         -4.56784       -8.69003        0.23722
C         -5.57496       -9.74289       -0.02702
O         -5.93077      -10.03607       -1.16356
C         -6.18674      -10.42162        1.12932
C         -5.96282       -9.99293        2.37283
C         -5.09528       -8.82578        2.66087
O         -5.00531       -8.42741        3.81594
C         -4.36773       -8.19592        1.52614
N         -3.54822       -7.13543        1.84080
C         -2.52061       -6.41303       -1.60206
S         -1.65529       -5.12201       -0.91173
C         -2.60228       -6.56028       -3.04312
C         -1.68633       -6.25869       -4.04268
O         -0.48031       -5.71964       -3.70394
C          0.58181       -5.94728       -4.61933
C         -2.20629       -6.52957       -5.36671
O         -1.51245       -6.17178       -6.48790
C         -1.76320       -6.90678       -7.67582
C         -3.46730       -7.11970       -5.31963
S         -4.08957       -7.04267       -3.72441
C         -4.32736       -7.58251       -6.35182
C         -5.13548       -8.64836       -6.31010
C         -6.12634       -8.73862       -7.42759
O         -6.01093       -8.33579       -8.56486
C         -7.31624       -9.34494       -6.81881
C         -7.02560       -9.76962       -5.51159
C         -5.56178       -9.61645       -5.29430
C         -4.79156      -10.40668       -4.50767
C         -3.36618      -10.33860       -4.52387
N         -2.20640      -10.31414       -4.56109
C         -5.35096      -11.48080       -3.74772
N         -5.81188      -12.38929       -3.19680
C         -8.07285      -10.11004       -4.67146
C         -9.38542      -10.07169       -5.18007
C         -9.63749       -9.70906       -6.52372
C         -8.58748       -9.33318       -7.35888
Br       -11.38268       -9.63270       -7.26838
Br       -10.78539      -10.47046       -3.95599
H         -0.00026        3.88655        4.14959
H         -3.68014        1.91082        1.38982
H          0.86383       -1.49343        3.67974
H         -2.35584       -1.12422        6.23009
H         -1.22068       -0.66767        5.00164
H         -1.01207       -2.22705        5.88018
H         -3.64175       -5.64942        4.73575
H         -5.25485       -5.01878        4.38612
H         -4.05335       -3.92786        5.04761
H         -6.84168      -11.25869        0.91334
H         -6.42841      -10.47082        3.22901
H          1.52084       -5.78816       -4.07806
H          0.55713       -5.22162       -5.43850
H          0.59318       -6.97553       -4.99554
H         -1.79924       -7.98543       -7.49282
H         -0.94425       -6.71266       -8.37373
H         -2.66549       -6.54619       -8.17665
H         -4.38905       -6.94654       -7.23148
H         -7.89985      -10.34949       -3.62406
H         -8.74672       -8.98645       -8.37659
