97

C          0.00330        0.87487       -0.36546
C         -0.68358        1.07025        0.78244
C         -0.13372        0.74432        2.05377
N          0.33102        0.48888        3.08644
C         -2.04028        1.50933        0.77597
N         -3.15546        1.83512        0.77886
C          1.26546        0.12706       -0.51269
C          1.22240       -0.54299       -1.74760
C          2.23346       -1.38224       -2.17452
C          3.38243       -1.47938       -1.37512
C          3.48762       -0.70867       -0.17769
C          2.40923        0.07678        0.26082
C          4.68741       -0.72631        0.54532
C          5.75927       -1.51265        0.12438
C          5.63830       -2.30653       -1.01283
C          4.45868       -2.28977       -1.75937
C          0.06919       -0.05685       -2.54326
O         -0.26451       -0.41451       -3.65085
C         -0.48993        1.07233       -1.72708
C         -0.95201        2.16377       -2.35347
C         -1.00796        3.45512       -1.74328
C         -0.14319        4.05803       -0.81664
C         -0.53259        5.37939       -0.51520
C         -1.62848        5.74546       -1.25737
S         -2.25409        4.56388       -2.23933
C         -1.91292        7.09895       -1.00273
C         -1.00711        7.59716       -0.09490
C         -0.09852        6.51856        0.30482
C          0.87105        6.54548        1.24210
C          1.15207        7.72351        1.99092
N          1.37790        8.68386        2.59734
C          1.62530        5.37975        1.55937
N          2.21256        4.40882        1.79725
C         -1.22529        8.97511        0.14703
C         -2.28527        9.45779       -0.62603
S         -3.02298        8.18603       -1.56283
C         -2.78372       10.81126       -0.71308
C         -2.75517       11.81093        0.23244
F         -2.24729       11.66531        1.42763
C         -3.35328       13.01300       -0.20499
F         -3.45313       14.07386        0.55180
C         -3.83512       12.94733       -1.49284
S         -3.50763       11.40044       -2.15703
C         -4.50212       13.96908       -2.26453
C         -4.33313       15.35185       -2.17177
C         -5.17284       16.02705       -3.08524
C         -5.92833       15.14462       -3.82473
S         -5.69018       13.54749       -3.46846
C         -6.78283       15.86625       -4.67922
C         -6.58521       17.20721       -4.46110
C         -5.51523       17.39285       -3.48335
C         -4.94647       18.54744       -3.08027
C         -5.36850       19.80891       -3.59151
N         -5.71346       20.84157       -3.99125
C         -3.88459       18.56674       -2.13543
N         -3.01907       18.57673       -1.36504
C         -7.50964       17.97953       -5.18498
C         -8.32110       17.19164       -6.00983
S         -7.94887       15.49687       -5.80088
C         -9.40636       17.54541       -6.87401
C         -9.49335       18.70103       -7.55414
C        -10.66952       19.30501       -8.22576
C        -11.62795       18.66493       -8.93763
C        -12.65205       19.35941       -9.64289
N        -13.48601       19.92808      -10.21543
C        -11.63989       17.24777       -9.09165
N        -11.64904       16.09357       -9.20288
C        -10.48581       20.78457       -8.11000
C         -9.16658       21.02662       -7.70417
C         -8.44136       19.76635       -7.55104
O         -7.23531       19.64956       -7.50469
C         -8.65400       22.28118       -7.42697
C         -9.50112       23.37781       -7.58213
C        -10.84115       23.18056       -8.02386
C        -11.32939       21.87533       -8.26820
C        -11.65970       24.30543       -8.20388
C        -11.17860       25.59100       -7.94331
C         -9.87704       25.77280       -7.48445
C         -9.04212       24.67183       -7.30289
H          2.15345       -1.89394       -3.12949
H          2.50279        0.66868        1.16815
H          4.80481       -0.11508        1.43858
H          6.68893       -1.50601        0.68803
H          6.47023       -2.93138       -1.32790
H          4.39437       -2.90845       -2.65203
H         -1.16821        2.10909       -3.42305
H          0.73449        3.56112       -0.42382
H         -0.64476        9.61295        0.80452
H         -3.64021       15.81056       -1.47590
H         -7.60271       19.05581       -5.12123
H        -10.23514       16.84205       -6.87800
H         -7.62872       22.38631       -7.08135
H        -12.36909       21.75793       -8.55806
H        -12.68252       24.19390       -8.55864
H        -11.82306       26.45288       -8.09787
H         -9.50778       26.77307       -7.27219
H         -8.02763       24.83394       -6.94284
