108

C         -8.02964       -0.27366       -3.74305
C         -9.27321       -0.25005       -4.29704
C         -9.57458       -0.94091       -5.50479
N         -9.80950       -1.48508       -6.50680
C        -10.32950        0.54421       -3.77405
N        -11.20860        1.17992       -3.34504
C         -6.82992       -0.95539       -4.30850
C         -5.70249       -0.30331       -3.81411
C         -4.39354       -0.70787       -4.02907
C         -4.19687       -1.84257       -4.84058
C         -5.31880       -2.48009       -5.39458
C         -6.65038       -2.05791       -5.13388
S         -4.83790       -3.80794       -6.39154
C         -3.20398       -3.55964       -6.04924
C         -2.97781       -2.50270       -5.20955
Br        -1.83273       -4.62483       -6.75006
C         -6.10000        0.85405       -3.01839
O         -5.38975        1.81581       -2.84387
C         -7.53116        0.61474       -2.66131
C         -8.14457        1.01458       -1.53019
C         -7.67594        2.02828       -0.64591
S         -8.87779        2.93498        0.22365
C         -7.91179        4.36951        0.11468
C         -6.64730        3.99732       -0.32275
C         -6.47500        2.56500       -0.19524
C         -5.09283        2.00276        0.01656
C         -5.11311        0.94606        1.04440
N         -5.07609        0.10216        1.84507
C         -4.15248        3.14101        0.49001
C         -4.13711        4.31302       -0.49722
C         -5.53441        4.85692       -0.88481
O         -5.69544        4.83989       -2.31600
C         -4.80271        5.64340       -3.06520
C         -8.44497        5.65398        0.42204
C         -9.75435        5.92144        0.29061
C        -10.26402        7.22074        0.53809
S        -10.93443        7.55182        2.08369
C        -11.26384        9.16636        1.66781
C        -10.91495        9.47110        0.36695
C        -11.12554       10.81922       -0.24101
C        -10.35142        8.32285       -0.30358
C         -9.87081        8.35111       -1.65799
C        -10.08350        7.41779       -2.61314
C         -9.50694        7.52958       -3.93190
C        -10.25262        7.53343       -5.04725
C         -9.68584        7.56622       -6.37984
C        -10.28141        7.10177       -7.49851
C        -11.64565        6.46482       -7.53504
C         -9.54162        7.07547       -8.81839
N         -9.88254        8.25490       -9.58679
C         -9.22879        9.46357       -9.59965
C         -7.95293        9.70243       -9.27243
C         -7.31830       11.00236       -9.33038
C         -6.01087       11.20917       -9.54871
C         -4.91612       10.28152       -9.86391
C         -4.96356        9.25093      -10.74483
C         -3.90622        8.31033      -10.90062
N         -3.06358        7.51812      -10.98170
C         -6.02649        9.13274      -11.68906
N         -6.82390        9.08195      -12.53238
C         -3.64972       10.94909       -9.44550
C         -3.93716       12.30191       -9.22008
C         -5.39385       12.54315       -9.26754
O         -5.95571       13.60107       -9.07658
C         -2.96029       13.27560       -9.04496
C         -1.60760       12.87086       -9.13964
C         -1.32113       11.50657       -9.30270
C         -2.32968       10.51988       -9.41305
S          0.38134       11.22970       -9.39777
C          0.71677       12.87956       -9.30025
C         -0.40075       13.65333       -9.13158
Br         2.45114       13.57620       -9.42046
H         -3.56421       -0.17745       -3.57066
H         -7.47489       -2.61207       -5.57018
H         -1.99483       -2.19531       -4.87254
H         -9.16698        0.68675       -1.35688
H         -4.65445        1.56838       -0.87559
H         -3.12976        2.76071        0.60755
H         -4.45936        3.51357        1.47716
H         -3.57926        3.98034       -1.37960
H         -3.55374        5.13480       -0.06334
H         -5.64538        5.89215       -0.54408
H         -5.04612        5.51640       -4.12536
H         -3.76255        5.33341       -2.93893
H         -4.91814        6.69633       -2.80190
H         -7.75668        6.42852        0.75246
H        -10.47290        5.17965       -0.04023
H        -11.70799        9.82357        2.40325
H        -11.45769       11.54201        0.51217
H        -11.88970       10.77055       -1.02317
H        -10.19521       11.19721       -0.67577
H         -9.29904        9.23133       -1.94162
H        -10.69412        6.54056       -2.41625
H         -8.42035        7.54934       -3.98579
H        -11.33376        7.49445       -4.95273
H         -8.68263        7.98512       -6.45639
H        -12.21371        6.58841       -6.61082
H        -11.54636        5.38918       -7.71393
H        -12.25046        6.89934       -8.33646
H         -9.81802        6.17861       -9.38567
H         -8.46010        6.99585       -8.66197
H        -10.82064        8.26108       -9.97904
H         -9.86202       10.26702       -9.97321
H         -7.33345        8.87130       -8.95028
H         -7.96072       11.85139       -9.09207
H         -3.23390       14.31915       -8.91309
H         -2.03511        9.48552       -9.54516
H         -0.37782       14.73279       -9.04277
