106

C         -6.21353        0.07819        3.56560
C         -7.08993       -0.32261        4.51772
C         -6.88445       -1.46610        5.34024
N         -6.72492       -2.39424        6.02158
C         -8.33079        0.33366        4.75776
N         -9.35359        0.84580        4.96375
C         -4.94048       -0.62695        3.17693
C         -4.40867       -0.00066        2.04602
C         -3.27664       -0.43123        1.36380
C         -2.62826       -1.58837        1.84083
C         -3.12354       -2.20737        2.99761
C         -4.26828       -1.73189        3.69040
S         -2.17052       -3.58683        3.41840
C         -1.17370       -3.38860        2.07113
C         -1.49550       -2.29567        1.31261
Br         0.23252       -4.55345        1.65543
C         -5.21614        1.15460        1.65684
O         -4.98603        1.91260        0.73340
C         -6.35344        1.21363        2.62290
C         -7.25424        2.20001        2.48979
N         -7.31854        3.17489        1.50363
C         -8.32036        4.07696        1.26160
S         -9.78067        4.11156        2.20081
C        -10.37315        5.43461        1.35681
N        -11.60684        6.01230        1.74929
O        -11.56794        7.19611        2.10474
O        -12.61581        5.30476        1.65504
C         -9.55356        5.86933        0.35354
C         -8.37988        5.05394        0.26251
C         -7.36079        5.27824       -0.72409
C         -7.58170        5.80205       -1.94573
C         -6.55190        6.00858       -2.93081
C         -6.49522        6.93250       -4.00567
C         -5.45766        6.49331       -4.94776
C         -4.76028        5.40751       -4.43054
S         -5.14976        5.01202       -2.82693
C         -3.88850        4.91462       -5.39913
C         -4.00692        5.69436       -6.49437
N         -4.88573        6.72006       -6.22573
C         -5.05217        7.87460       -7.07991
C         -4.03548        8.95716       -6.74752
C         -3.11263        5.37600       -7.64077
C         -2.37352        4.04997       -7.25388
S         -2.73788        3.64038       -5.47951
C         -7.54464        7.94744       -4.10647
C         -7.60312        9.26260       -4.39110
C         -8.81054       10.08214       -4.27589
C         -8.61457       11.41096       -4.41320
C         -7.20493       11.74231       -4.49534
S         -6.28524       10.27079       -4.80352
C         -6.59318       12.90855       -4.20758
C         -7.12224       14.25574       -4.08940
C         -6.27652       15.12153       -3.49663
C         -5.06985       14.49290       -3.00007
S         -4.90335       12.90163       -3.67565
C         -4.21928       14.99729       -2.08930
C         -3.16303       14.21317       -1.46187
C         -2.97866       14.02947       -0.14590
C         -1.82952       13.20669        0.34188
O         -1.03624       12.56600       -0.31591
C         -1.83063       13.34331        1.80397
C         -0.98331       12.67603        2.67343
C         -1.15009       12.88377        4.05038
C         -2.15572       13.79119        4.50646
C         -2.26649       14.00334        5.88733
C         -1.44725       13.32280        6.78653
C         -0.50501       12.40896        6.34412
C         -0.34436       12.19278        4.97193
F         -1.57940       13.54845        8.09604
C         -3.01322       14.43410        3.58488
C         -2.86436       14.19734        2.22105
C         -3.67706       14.59210        1.02047
C         -5.01304       14.61281        1.19747
C         -5.82748       13.50925        0.75050
N         -6.47240       12.58188        0.51977
C         -5.64431       15.65104        1.92247
N         -6.14375       16.53094        2.46797
H         -2.92820        0.09622        0.47946
H         -4.58183       -2.26656        4.57850
H         -0.96811       -2.00689        0.41122
H         -8.06276        2.29803        3.20016
H         -6.53930        3.11276        0.83475
H         -9.77544        6.72388       -0.27484
H         -6.35189        5.00345       -0.42674
H         -8.59971        6.03234       -2.24888
H         -6.08982        8.20846       -7.01948
H         -4.88179        7.54513       -8.11291
H         -4.12524        9.29007       -5.71490
H         -4.15866        9.81800       -7.41134
H         -3.00612        8.59654       -6.82610
H         -2.37722        6.17196       -7.79462
H         -3.66777        5.22743       -8.57195
H         -1.29132        4.13777       -7.39344
H         -2.73120        3.21509       -7.86580
H         -8.49660        7.59638       -3.71458
H         -9.77187        9.64911       -4.03190
H         -9.39797       12.14809       -4.28894
H         -8.07486       14.54982       -4.51102
H         -6.47976       16.17529       -3.36184
H         -4.33935       16.01995       -1.74123
H         -2.50136       13.68274       -2.15266
H         -0.22642       12.00122        2.28455
H         -2.99865       14.70170        6.29171
H          0.10834       11.87016        7.06454
H          0.39936       11.48010        4.64060
H         -3.79918       15.08802        3.95901
