98

C          2.51302        4.34370       -5.63073
C          2.98631        3.27701       -4.91492
C          3.73714        2.38119       -5.70673
C          3.83815        2.75019       -7.02063
S          3.00291        4.23050       -7.28655
C          4.24063        1.25729       -4.96935
O          4.88089        0.32367       -5.40715
C          3.75906        1.54522       -3.54121
C          2.91443        2.80203       -3.55113
C          2.21941        3.36925       -2.55203
N          1.48314        4.57079       -2.69970
O          2.07599        5.62750       -2.45061
O          0.31954        4.47835       -3.10904
N          2.11639        2.84692       -1.24392
O          2.96445        3.21147       -0.42084
O          1.21658        2.02555       -1.03349
C          4.11905        0.75382       -2.51319
C          4.98261       -0.40614       -2.57217
C          4.58744       -1.64595       -2.21064
C          5.70943       -2.57923       -2.39630
C          6.82356       -1.74927       -2.89070
C          6.37977       -0.48175       -2.97284
C          8.14996       -2.12310       -3.20962
N          9.25500       -2.39023       -3.44954
C          5.67711       -3.90975       -2.15221
C          6.79059       -4.84410       -2.33800
C          6.39910       -6.09604       -2.00555
C          5.00292       -6.00305       -1.58396
C          4.56692       -4.73514       -1.66617
C          3.24723       -4.34328       -1.33497
N          2.16749       -4.02989       -1.05881
C          7.25767       -7.25858       -2.08107
N          7.24180       -8.34678       -1.19562
C          6.39012       -8.56334       -0.05640
C          8.19372       -9.32985       -1.54870
O          8.44632      -10.39425       -1.02341
C          8.82748       -8.75467       -2.73901
C          8.20070       -7.48758       -3.00675
C          8.83292       -6.93058       -4.21974
O          8.57464       -5.87811       -4.76510
N          9.77492       -7.91844       -4.56194
C         10.68441       -7.78061       -5.67283
C          9.75482       -8.98496       -3.66769
C         10.60692      -10.12808       -3.81460
C         11.46722      -10.54609       -2.87489
C         12.32470      -11.68646       -3.06234
C         12.33144      -12.76255       -2.24733
C         13.30664      -13.73337       -2.76120
C         13.89155      -13.10005       -3.95624
C         13.30556      -11.90341       -4.11500
C         14.92164      -13.58570       -4.79762
N         15.77008      -14.01043       -5.45945
C         13.54636      -14.95996       -2.24624
C         14.42149      -15.97321       -2.83425
C         14.24331      -17.14100       -2.18243
C         13.39159      -16.87246       -1.03211
C         12.96157      -15.59643       -1.06263
C         12.13732      -15.02664       -0.07466
N         11.45708      -14.56519        0.75149
C         14.90124      -18.38469       -2.50167
C         15.21248      -18.87946       -3.71278
C         15.01668      -18.36266       -5.10049
C         13.91890      -17.78681       -5.61885
N         13.80697      -17.42961       -6.98644
O         13.40453      -18.29205       -7.77659
O         14.13266      -16.27580       -7.28828
N         12.64481      -17.85364       -4.98828
O         12.08334      -16.78338       -4.72389
O         12.18337      -18.97992       -4.75517
C         16.18547      -18.82285       -5.80642
C         16.80544      -18.57859       -6.99956
S         18.17218      -19.62835       -7.18721
C         17.92907      -20.36771       -5.64949
C         16.84911      -19.80706       -5.02640
C         16.25521      -19.98467       -3.72729
O         16.57135      -20.74903       -2.83764
H          1.91189        5.19225       -5.33227
H          4.34896        2.24196       -7.82881
H          3.77336        0.93668       -1.49974
H          3.59578       -1.88135       -1.86268
H          6.95834        0.37003       -3.30183
H          7.77376       -4.58907       -2.69879
H          4.41116       -6.85217       -1.27395
H          5.97057       -7.63420        0.32931
H          6.96979       -9.03603        0.74342
H          5.59181       -9.25394       -0.34673
H         10.47556       -6.86375       -6.23029
H         10.57421       -8.63794       -6.34317
H         11.70958       -7.73739       -5.29198
H         10.52346      -10.66263       -4.75888
H         11.55200      -10.02761       -1.92174
H         11.67099      -12.88027       -1.40338
H         13.51995      -11.17568       -4.88488
H         15.06345      -15.83474       -3.68532
H         13.16109      -17.60496       -0.26976
H         15.23134      -18.93897       -1.61760
H         16.57566      -17.87253       -7.78734
H         18.59204      -21.14272       -5.28604
