99

C         -8.93604        2.90010        6.89854
C         -9.44499        4.19582        6.83764
F         -9.26790        5.01885        7.87992
C        -10.11527        4.64032        5.70702
F        -10.58814        5.89234        5.64867
C        -10.28803        3.79951        4.61542
C         -9.75768        2.50374        4.64218
C         -9.07101        2.03447        5.80116
C         -8.51965        0.73087        5.82196
C         -8.60070       -0.07882        4.69365
C         -9.27476        0.43231        3.57353
C         -9.87371        1.67965        3.52534
C         -9.25558       -0.52446        2.46691
O         -9.65055       -0.32598        1.33566
C         -8.63967       -1.76602        3.01715
C         -8.10119       -1.45358        4.36093
C         -7.25561       -2.21529        5.10080
C         -6.75580       -3.47374        4.66326
N         -6.34229       -4.50532        4.31601
C         -6.75852       -1.80542        6.37036
N         -6.35578       -1.47350        7.40744
C         -8.76733       -2.91283        2.33754
N         -9.35756       -3.12728        1.10578
C         -9.55640       -4.32032        0.47167
S         -9.60646       -5.80846        1.35029
C         -9.95935       -6.71028       -0.02634
N        -10.15913       -8.13049        0.08359
O        -10.38077       -8.73569       -0.97464
O        -10.10766       -8.65018        1.20619
C        -10.01473       -5.94145       -1.16614
C         -9.77336       -4.54840       -0.88724
C         -9.73909       -3.55683       -1.93778
C         -9.00515       -2.42983       -1.93184
C         -8.92634       -1.57533       -3.06159
S         -7.64326       -1.82123       -4.20814
C         -8.06789       -0.45478       -5.14340
C         -7.29627       -0.00131       -6.33296
C         -8.11120       -0.04869       -7.61675
C         -9.15592        0.15518       -4.60515
C         -9.62633       -0.46060       -3.44230
N        -10.69028        0.13410       -2.80331
C        -11.02079        1.23256       -3.50806
S        -10.12831        1.59725       -5.03130
C        -12.09098        2.13255       -3.08858
C        -12.23913        3.51252       -3.29383
C        -11.22548        4.35120       -3.85862
N        -10.40193        5.06948       -4.24592
C        -13.43126        3.97104       -2.69790
C        -14.06532        3.03746       -1.96065
S        -13.40487        1.51125       -2.11061
S        -15.32896        3.65410       -1.02227
C        -15.00759        5.19740       -1.63079
C        -14.04557        5.21446       -2.57511
C        -13.93824        6.44549       -3.23946
C        -13.29874        6.66970       -4.50042
N        -12.79618        6.89276       -5.52017
C        -14.63666        7.44573       -2.54154
S        -15.64958        6.70649       -1.30901
C        -14.72790        8.86720       -2.73407
C        -13.70841        9.64012       -3.14545
C        -13.99123       10.99161       -3.75704
O        -14.95254       11.70434       -3.56783
C        -12.89076       11.20771       -4.73263
C        -12.75797       12.21927       -5.66905
C        -11.70931       12.12185       -6.60385
C        -10.88800       10.95215       -6.63066
C         -9.90410       10.81038       -7.61794
C         -9.67104       11.84254       -8.51698
C        -10.41891       13.00991       -8.45494
C        -11.44637       13.14902       -7.52316
F        -10.15366       14.02112       -9.29316
F         -8.70106       11.70746       -9.43149
C        -11.04199        9.96027       -5.65391
C        -11.98654       10.14052       -4.65833
C        -12.30542        9.35563       -3.44878
C        -11.39126        8.75577       -2.64949
C        -11.73359        8.25654       -1.35912
N        -12.02389        7.84171       -0.31617
C        -10.01419        8.67219       -2.99916
N         -8.89107        8.62165       -3.28953
H         -8.41402        2.59308        7.80150
H        -10.81457        4.17828        3.74325
H         -8.02445        0.40404        6.73079
H        -10.39543        1.99619        2.62586
H         -8.38622       -3.83482        2.75669
H         -9.67725       -2.26439        0.64674
H        -10.20200       -6.35242       -2.15266
H        -10.30920       -3.79466       -2.83656
H         -8.36065       -2.17490       -1.09729
H         -6.40535       -0.62743       -6.46774
H         -6.92951        1.01916       -6.16637
H         -8.49250       -1.05708       -7.80684
H         -7.49199        0.25255       -8.46716
H         -8.96757        0.63082       -7.58110
H        -15.71305        9.32287       -2.61610
H        -13.45311       13.05459       -5.67398
H         -9.29442        9.91242       -7.68557
H        -12.01526       14.07455       -7.51419
H        -10.42455        9.06473       -5.68500
