128

C          0.16359       -0.98067       -1.28542
C          0.52617        0.36092       -1.26700
C         -0.08648        1.23503       -0.33913
C          0.28753        2.62252       -0.36237
N          0.59755        3.73851       -0.40419
C         -1.06145        0.75859        0.56579
C         -1.73525        1.63827        1.47955
N         -2.30451        2.33230        2.21302
C         -1.42542       -0.59239        0.55122
C         -0.81609       -1.42007       -0.38060
C         -1.16857       -2.82497       -0.64236
O         -1.84078       -3.52249        0.08417
C         -0.49749       -3.16102       -1.94225
C          0.54616       -2.13454       -2.15154
C          1.69715       -2.28225       -2.85251
C          2.69256       -1.26437       -2.90062
N          3.48629       -0.42002       -2.92676
C          2.02854       -3.49389       -3.52951
N          2.28996       -4.47628       -4.08016
C         -0.96020       -4.06429       -2.82139
C         -2.14171       -4.91103       -2.64365
C         -2.01950       -6.16423       -2.03878
C         -3.15815       -6.94773       -1.92303
C         -4.40562       -6.51510       -2.42876
C         -4.52834       -5.27787       -3.03525
C         -3.39030       -4.47264       -3.13432
C         -5.39441       -7.54166       -2.19407
C         -4.78430       -8.61727       -1.51729
C         -3.30133       -8.32785       -1.27905
C         -2.39956       -9.38846       -1.96973
C         -2.55254       -9.51315       -3.48508
C         -2.96593       -8.29334        0.23822
C         -3.71691       -7.25402        1.06964
C         -5.50525       -9.74525       -1.16342
C         -6.86023       -9.81527       -1.51105
C         -7.46327       -8.73873       -2.19285
C         -6.73475       -7.59551       -2.53524
C         -7.64285      -11.00281       -1.17698
N         -7.06624      -12.25697       -1.12164
C         -8.03112      -13.15854       -0.79248
C         -8.23109      -14.53595       -0.56035
C         -9.57871      -14.63769       -0.28063
N        -10.17480      -13.40205       -0.33285
C         -9.20502      -12.49774       -0.65320
C         -8.99875      -11.12294       -0.89425
C        -10.40517      -15.74140       -0.02347
C        -10.59018      -16.16506        1.23436
C        -11.42541      -17.31842        1.59372
C        -11.52800      -17.68093        2.94533
C        -12.30661      -18.77972        3.27957
C        -12.97313      -19.52218        2.28515
C        -12.89318      -19.17114        0.95586
C        -12.12001      -18.06773        0.61715
C        -13.67363      -20.62014        2.89281
C        -13.48040      -20.58533        4.28788
C        -12.59279      -19.38471        4.65917
C        -11.27972      -19.81824        5.37120
C        -10.32715      -20.69597        4.55862
C        -13.35577      -18.37642        5.56440
C        -14.60884      -17.74700        4.95385
C        -14.06558      -21.54708        5.10201
C        -14.83494      -22.56143        4.50462
C        -14.96157      -22.60770        3.09912
C        -14.41300      -21.61839        2.28999
C        -15.39998      -23.62662        5.34788
C        -16.53911      -24.31306        5.16672
C        -16.67313      -25.61977        5.88554
O        -16.09859      -25.99588        6.88412
C        -17.59197      -26.42283        5.06004
C        -17.91082      -27.75646        5.26432
C        -18.75386      -28.37733        4.33575
C        -19.22046      -27.65714        3.21379
C        -18.86980      -26.30081        3.03063
C        -18.07663      -25.66667        3.97824
C        -17.60792      -24.26182        4.15908
C        -18.22754      -23.15115        3.68823
C        -17.97789      -21.85459        4.23111
N        -17.84064      -20.80105        4.69682
C        -19.23792      -23.20408        2.68739
N        -20.03501      -23.27812        1.84763
C        -20.07307      -28.27620        2.23629
N        -20.76209      -28.75522        1.43693
C        -19.12691      -29.74626        4.55568
N        -19.42627      -30.84822        4.75449
H          1.24573        0.77170       -1.97241
H         -2.19277       -0.98677        1.21534
H         -0.52442       -4.17751       -3.81004
H         -1.06355       -6.52237       -1.67154
H         -5.48116       -4.93691       -3.42597
H         -3.48235       -3.49920       -3.61013
H         -2.59263      -10.37617       -1.53006
H         -1.34583       -9.16253       -1.76020
H         -3.57249       -9.78556       -3.77113
H         -1.88434      -10.29567       -3.86010
H         -2.28396       -8.58378       -3.99586
H         -1.89173       -8.10761        0.36863
H         -3.16107       -9.28031        0.67837
H         -3.48066       -6.23455        0.75053
H         -3.42357       -7.34195        2.12117
H         -4.80040       -7.39382        1.01699
H         -5.01936      -10.54719       -0.61833
H         -8.51144       -8.79444       -2.47864
H         -7.21833       -6.78351       -3.06667
H         -6.10428      -12.50907       -1.30117
H         -7.51260      -15.34219       -0.60311
H        -11.14670      -13.16772       -0.17921
H         -9.72943      -10.32744       -0.86106
H        -10.85109      -16.21777       -0.88974
H        -10.09829      -15.64813        2.05486
H        -11.00821      -17.12414        3.71964
H        -13.40952      -19.73067        0.18460
H        -12.07084      -17.81212       -0.43555
H        -11.52216      -20.34977        6.30047
H        -10.71767      -18.92282        5.66991
H        -10.79093      -21.64409        4.27362
H         -9.43735      -20.92548        5.15536
H         -9.98029      -20.19081        3.65187
H        -12.68190      -17.55586        5.84536
H        -13.64465      -18.87022        6.50130
H        -14.36842      -17.14085        4.07477
H        -15.08326      -17.08215        5.68314
H        -15.34516      -18.50174        4.66421
H        -13.92484      -21.51103        6.17846
H        -15.47855      -23.42419        2.60467
H        -14.54488      -21.64924        1.21390
H        -14.73010      -23.93331        6.15431
H        -17.51076      -28.29018        6.12463
H        -19.23481      -25.78500        2.14531
