87

C         11.13402      -11.27121      -17.25980
C         11.03610      -11.46997      -18.61181
S          9.58828      -12.34202      -18.98914
C          9.12487      -12.41680      -17.35001
Cl         7.68273      -13.23438      -16.91889
C         10.02863      -11.79532      -16.54171
C         10.12254      -11.56864      -15.12611
O          9.28058      -11.77306      -14.27516
C         11.50520      -10.93328      -14.98282
C         12.07829      -10.66571      -16.35021
C         13.21787      -10.00833      -16.67440
C         13.62577       -9.84809      -18.03168
N         13.96539       -9.71823      -19.13170
C         14.08992       -9.42252      -15.72478
N         14.81561       -8.94562      -14.94784
C         12.08120      -10.78036      -13.77995
C         11.56434      -11.28338      -12.51462
N         11.92216      -12.54726      -12.22898
C         11.65255      -12.96177      -10.98378
C         11.06246      -12.16229      -10.04070
C         10.76304      -10.86858      -10.42796
N         11.03565      -10.39566      -11.66011
C         10.26226       -9.88447       -9.46118
C          9.59823      -10.22348       -8.34751
N          9.16154       -9.38569       -7.35430
C          8.38900       -9.67626       -6.26605
S          8.01113      -11.29433       -5.78735
C          7.22220      -10.76972       -4.39823
N          6.69734      -11.74864       -3.50423
O          5.49082      -11.67114       -3.24537
O          7.49569      -12.57358       -3.04062
C          7.14708       -9.40410       -4.28524
C          7.81060       -8.75982       -5.38554
C          7.88875       -7.32592       -5.51892
C          7.88237       -6.65088       -6.68077
C          7.98494       -5.21021       -6.78763
C          7.09860       -4.43685       -7.43189
C          7.19715       -3.00597       -7.58511
C          6.15965       -2.45962       -8.23883
C          5.14992       -3.42112       -8.65004
S          5.63925       -5.04475       -8.16190
C          4.00573       -3.17492       -9.31720
C          3.52518       -1.89638       -9.80752
C          2.39564       -1.97996      -10.52888
C          1.88228       -3.32666      -10.65066
S          2.85992       -4.44524       -9.74207
C          0.83104       -3.68954      -11.40318
C          0.30041       -5.04505      -11.50043
C         -0.33842       -5.60233      -12.54202
C         -0.93283       -6.95585      -12.72377
C         -0.98496       -7.97946      -11.83116
C         -1.53615       -9.26300      -12.11798
N         -1.98031      -10.31028      -12.33324
C         -0.50994       -7.87106      -10.49720
N         -0.15242       -7.80267       -9.39609
C         -1.49389       -6.99599      -14.11268
C         -1.23111       -5.77497      -14.73366
C         -0.50378       -4.87181      -13.84351
O         -0.12005       -3.76438      -14.16031
C         -1.62305       -5.44724      -16.02670
C         -2.33235       -6.41769      -16.76165
C         -2.61200       -7.64864      -16.15247
C         -2.20789       -7.95433      -14.82769
S         -3.48572       -8.68679      -17.22199
C         -3.46730       -7.53507      -18.45487
C         -2.84710       -6.36773      -18.10012
Br        -4.21903       -7.82940      -20.14423
H         11.69458      -11.18914      -19.42282
H         13.07201      -10.37647      -13.63480
H         11.95961      -13.97351      -10.73950
H         10.89066      -12.53402       -9.04035
H         10.47819       -8.84637       -9.69298
H          9.35080      -11.26367       -8.16052
H          9.45888       -8.42269       -7.48698
H          6.65127       -8.89454       -3.46694
H          7.90491       -6.75337       -4.59287
H          7.75662       -7.17391       -7.62877
H          8.86684       -4.76355       -6.33480
H          8.03435       -2.43894       -7.20188
H          6.07869       -1.39988       -8.43408
H          4.03850       -0.96259       -9.62742
H          1.90591       -1.13138      -10.98782
H          0.32193       -2.92152      -11.98215
H          0.46535       -5.61120      -10.59124
H         -1.38452       -4.47404      -16.44659
H         -2.47835       -8.92369      -14.42954
H         -2.74423       -5.51177      -18.75602
