123

C         -1.41396        0.50490        1.97182
C         -1.18890       -0.82979        1.96756
C          0.02307       -1.41001        2.44023
N          1.01345       -1.88483        2.81827
C         -2.12145       -1.75086        1.40676
N         -2.88646       -2.49058        0.94551
C         -0.44859        1.57557        2.39017
C         -0.90006        2.78766        1.86276
C         -0.28969        4.01683        2.07293
C          0.89974        4.03496        2.82736
C          1.39323        2.82290        3.33604
C          0.72024        1.58175        3.14836
S          2.88514        3.07753        4.17693
C          2.85220        4.73883        3.87367
C          1.74685        5.14086        3.17518
Br         4.19720        5.91870        4.42988
C         -2.10166        2.58824        1.04923
O         -2.50231        3.36382        0.20697
C         -2.58693        1.20896        1.38125
C         -3.88532        0.85685        1.29777
C         -4.89390        1.75662        0.82985
S         -5.79619        2.69220        1.93249
C         -6.56456        3.64935        0.70179
C         -6.21513        3.13404       -0.55392
C         -5.35011        1.97253       -0.45490
C         -4.92876        1.17099       -1.65004
C         -5.77451        1.47217       -2.88079
C         -5.88788        2.98620       -3.10230
O         -6.63317        3.29426       -4.29241
C         -6.03460        2.82940       -5.49521
C         -6.64963        3.62173       -1.91860
C         -7.46442        4.78433        1.11620
C         -8.65981        5.15149        0.44563
C         -9.44694        6.31216        0.80084
N        -10.48652        6.67005        0.00837
C        -10.84121        5.89733       -1.04635
C        -10.16767        4.74202       -1.31412
N         -9.09203        4.37190       -0.57232
C        -10.54804        3.85135       -2.37345
N        -10.89606        3.14795       -3.22451
C        -11.95368        6.35670       -1.82575
N        -12.85183        6.71245       -2.47073
C         -9.19873        7.09691        1.95871
C         -8.04774        6.70259        2.70989
C         -7.14745        5.57900        2.26076
N         -6.06659        5.46895        3.05646
S         -6.22205        6.52984        4.30081
N         -7.63873        7.24189        3.87373
C        -10.06720        8.23244        2.41283
C         -9.55379        9.33438        3.13414
C        -10.39940       10.32715        3.62134
C        -11.74994       10.34328        3.24568
C        -12.29559        9.30561        2.52065
C        -11.46597        8.23960        2.16193
C        -12.38874       11.50150        3.80484
C        -11.48846       12.16047        4.66364
C        -10.10107       11.48149        4.60855
C         -9.76402       10.93739        6.02657
C         -8.40765       10.26119        6.19363
C         -9.02196       12.42188        4.01219
C         -8.71620       13.68153        4.81901
C        -11.92069       13.22655        5.44411
C        -13.23899       13.67923        5.30174
C        -14.08465       13.07476        4.34996
C        -13.67257       11.97099        3.61174
C        -13.70239       14.81193        6.11022
C        -14.98498       14.95998        6.47470
C        -15.46365       16.07731        7.23869
C        -15.40228       17.37611        6.91624
C        -14.89267       18.15296        5.77069
C        -14.89620       17.80920        4.45692
C        -14.32795       18.62106        3.42971
N        -13.84431       19.26823        2.59617
C        -15.58473       16.66078        3.96518
N        -16.19631       15.78336        3.51233
C        -14.62559       19.53190        6.29427
C        -15.15816       19.62209        7.58515
C        -15.68903       18.33075        8.02807
O        -16.20052       18.10231        9.10420
C        -15.20191       20.78687        8.34012
C        -14.71878       21.96706        7.74009
C        -14.15987       21.88977        6.45573
C        -14.07387       20.67485        5.72843
S        -13.64375       23.44602        5.90970
C        -14.19676       24.19285        7.31798
C        -14.71963       23.31639        8.22987
Br       -14.10934       26.04193        7.59922
H         -0.71766        4.92499        1.65747
H          1.14884        0.68951        3.59205
H          1.54771        6.16827        2.89337
H         -4.24329       -0.10821        1.63938
H         -5.01196        0.10119       -1.42302
H         -3.87575        1.38102       -1.87013
H         -6.78159        1.04442       -2.77576
H         -5.32452        0.96760       -3.74057
H         -4.89126        3.43857       -3.18122
H         -6.59345        3.24184       -6.33961
H         -6.09748        1.74003       -5.56568
H         -4.99364        3.15698       -5.56711
H         -7.69764        3.35603       -2.06850
H         -6.57645        4.71430       -1.98136
H         -8.49404        9.41647        3.34925
H        -13.35194        9.28344        2.27243
H        -11.95358        7.40101        1.67132
H        -10.53738       10.22407        6.34460
H         -9.80541       11.75621        6.75587
H         -8.33848        9.34289        5.60991
H         -8.26198        9.97881        7.24171
H         -7.58188       10.92058        5.91438
H         -9.31301       12.73465        3.00016
H         -8.08238       11.86910        3.88734
H         -9.53609       14.40253        4.75690
H         -7.82981       14.18033        4.41428
H         -8.52097       13.46246        5.87214
H        -11.25392       13.68523        6.16766
H        -15.09082       13.44808        4.17822
H        -14.35214       11.50452        2.90720
H        -12.94534       15.52921        6.41737
H        -15.73374       14.20307        6.24491
H        -15.88317       15.78484        8.20467
H        -15.63655       20.78634        9.33617
H        -13.62311       20.69920        4.74399
H        -15.11830       23.61022        9.19345
