119

C         -8.78029       12.46683        6.29948
C         -7.80286       13.38145        6.09832
C         -7.72867       14.61509        6.81643
N         -7.67102       15.61459        7.39672
C         -6.72370       13.15953        5.19661
N         -5.84929       12.97316        4.45432
C         -9.85791       12.54821        7.33225
C        -10.36197       11.26306        7.54236
C        -11.39976       10.97239        8.42171
C        -11.99828       12.04891        9.11633
C        -11.50279       13.34461        8.90409
C        -10.42844       13.61579        8.01819
S        -12.38126       14.50682        9.83491
C        -13.40114       13.32225       10.47066
C        -13.10672       12.05917       10.03179
Br       -14.80323       13.70380       11.65306
C         -9.71700       10.29328        6.63940
O         -9.87391        9.09198        6.67997
C         -8.88162       11.11218        5.69614
C         -8.50988       10.67659        4.47655
C         -8.64934        9.35103        3.93293
C         -7.63481        8.44447        4.16339
S         -7.89862        6.96615        3.37726
C         -9.38686        7.49761        2.72764
C         -9.70232        8.81246        3.06835
C        -10.92124        9.34184        2.51367
C        -11.33432       10.78418        2.77866
C        -10.85382       11.74248        1.69709
C        -11.78440        8.49747        1.68006
C        -13.01956        9.08476        1.00083
C        -12.92461        9.05709       -0.52415
C        -11.45743        7.11178        1.46432
C        -12.16180        5.98644        0.83293
C        -11.35245        4.87696        0.70439
S         -9.83791        5.09393        1.44369
C        -10.22394        6.68466        1.93712
C        -13.55528        5.95184        0.45823
C        -14.12402        5.24330       -0.53463
C        -15.54210        5.22328       -0.78142
S        -16.05445        5.07460       -2.42993
C        -17.74937        5.08757       -2.07177
C        -17.91805        5.17135       -0.70160
C        -16.66654        5.26504        0.03147
C        -16.61402        5.35627        1.43363
C        -17.87998        5.40173        2.05278
O        -18.06325        5.55349        3.41038
C        -16.88489        5.63975        4.20591
C        -19.10204        5.29474        1.32175
C        -19.17837        5.16061       -0.08214
C        -18.72795        5.07814       -3.12171
C        -18.54731        4.43915       -4.28739
C        -19.51305        4.46421       -5.36827
C        -19.98235        3.38038       -6.00253
C        -20.84615        3.41329       -7.15867
C        -21.04543        2.20740       -7.71065
C        -20.34616        1.13055       -7.02964
S        -19.61038        1.73735       -5.54776
C        -20.16540       -0.12230       -7.48686
C        -20.60599       -0.64435       -8.76619
C        -20.02473       -1.80791       -9.10193
C        -19.09665       -2.29200       -8.10463
S        -19.20335       -1.33617       -6.64969
C        -18.24191       -3.30888       -8.29412
C        -17.23888       -3.78687       -7.36069
C        -16.22899       -3.09304       -6.81299
C        -15.77722       -1.69771       -6.92723
C        -15.63583       -0.97805       -8.06319
C        -15.07718        0.33406       -8.08801
N        -14.62215        1.40164       -8.11260
C        -15.88033       -1.54893       -9.34873
N        -16.02082       -2.02191      -10.39749
C        -15.13868       -1.35721       -5.62539
C        -14.84008       -2.55804       -4.97437
C        -15.47058       -3.69600       -5.67016
O        -15.40702       -4.86368       -5.34839
C        -14.05571       -2.63408       -3.83271
C        -13.54488       -1.42361       -3.31030
C        -13.93573       -0.21005       -3.90089
C        -14.76770       -0.15191       -5.04486
S        -13.24242        1.13814       -3.06989
C        -12.37143        0.12959       -2.03442
C        -12.62629       -1.20125       -2.22860
Br       -11.17135        0.77124       -0.74791
H        -11.76202        9.95387        8.53358
H        -10.11829       14.64592        7.88239
H        -13.65658       11.17409       10.32920
H         -8.01603       11.35942        3.79074
H         -6.73577        8.58070        4.74947
H        -10.95688       11.12010        3.74623
H        -12.41839       10.85551        2.90838
H         -9.77838       11.92752        1.78640
H        -11.36632       12.70546        1.79352
H        -11.04180       11.36074        0.68897
H        -13.22402       10.11783        1.27940
H        -13.90128        8.54234        1.35077
H        -12.27919        9.86497       -0.88196
H        -13.91757        9.19615       -0.96332
H        -12.51340        8.12602       -0.92255
H        -11.59029        3.91910        0.26257
H        -14.19806        6.55792        1.08132
H        -13.49594        4.67391       -1.21697
H        -15.69541        5.38489        1.99416
H        -17.18764        5.80025        5.24449
H        -16.26207        6.49147        3.90971
H        -16.31964        4.70279        4.16198
H        -20.03507        5.31028        1.88731
H        -20.12871        5.05366       -0.59037
H        -19.66636        5.59677       -2.93912
H        -17.64716        3.85821       -4.48065
H        -19.79971        5.45601       -5.71371
H        -21.25431        4.33179       -7.55713
H        -21.63886        2.05787       -8.60107
H        -21.29402       -0.12282       -9.41534
H        -20.19185       -2.31490      -10.04132
H        -18.27592       -3.86232       -9.23245
H        -17.37773       -4.82985       -7.06885
H        -13.81328       -3.59551       -3.38927
H        -15.04733        0.81317       -5.45395
H        -12.16651       -1.99567       -1.65260
