115

C         -2.81337        8.56678        5.11906
C         -3.21416        9.12091        6.28913
C         -2.32120        9.79664        7.17013
N         -1.59412       10.34111        7.88314
C         -4.58265        9.14207        6.70943
N         -5.68275        9.15894        7.05399
C         -1.44240        8.65881        4.52505
C         -1.55002        8.37963        3.15922
C         -0.47341        8.36547        2.28044
C          0.81002        8.62494        2.80701
C          0.93178        8.89435        4.17950
C         -0.18464        8.91515        5.05603
S          2.58480        9.17152        4.60836
C          3.10734        8.92347        3.02237
C          2.08889        8.64092        2.15291
Br         4.90503        9.01974        2.50409
C         -2.92961        8.02645        2.80163
O         -3.32118        7.85482        1.66747
C         -3.67573        7.93555        4.10604
C         -4.81753        7.24333        4.28409
C         -5.51302        6.60806        3.22135
S         -6.57183        7.55072        2.27403
C         -6.91068        6.27927        1.13435
C         -6.36920        5.10060        1.62280
C         -5.57458        5.29298        2.82056
C         -4.90626        4.26339        3.49022
C         -5.08468        3.00735        2.87513
O         -4.43520        1.98151        3.52591
C         -4.02307        0.90409        2.69156
C         -5.88903        2.80876        1.70745
C         -6.55176        3.85019        1.01660
C         -7.62764        6.55441       -0.08363
C         -8.18850        7.75427       -0.31981
C         -8.82503        8.25855       -1.49692
C         -8.97970        7.46832       -2.61637
S         -9.70532        8.29591       -3.89722
C         -9.81488        9.74187       -2.98847
C         -9.33941        9.62852       -1.68917
C         -9.43528       10.81689       -0.86667
C         -8.99217       10.84599        0.60099
C        -10.09614       10.37826        1.54081
C        -10.01362       12.05285       -1.41458
C        -10.08735       13.28743       -0.51904
C         -8.82755       14.14016       -0.63329
C        -10.46087       12.10782       -2.78154
C        -11.06148       13.14631       -3.62945
C        -11.30819       12.69679       -4.91135
S        -10.89005       11.07680       -5.12995
C        -10.34329       10.93565       -3.51768
C        -11.38639       14.49940       -3.27147
C        -12.42315       15.20565       -3.76016
C        -12.75377       16.52635       -3.26491
C        -13.96112       16.88027       -2.79990
C        -14.23953       18.12719       -2.12748
C        -15.36194       18.09035       -1.39323
C        -16.04008       16.80541       -1.44807
S        -15.35476       15.83235       -2.75042
C        -16.90221       16.31491       -0.53894
C        -17.27825       16.94642        0.71466
C        -17.58802       16.04890        1.66612
C        -17.49611       14.68025        1.19166
S        -17.47207       14.64609       -0.54871
C        -17.31701       13.61161        1.97607
C        -17.03823       12.23668        1.52411
C        -15.72300       11.70366        1.32699
O        -14.75416       12.67362        1.47275
C        -13.38627       12.39205        1.24424
C        -15.50521       10.31982        1.01932
O        -14.21428        9.84081        0.91663
C        -14.00985        8.87680       -0.12291
C        -16.56708        9.39456        0.90872
C        -17.87920        9.89860        1.03867
C        -18.13124       11.34603        1.34676
N        -19.44332       11.62985        1.44231
S        -20.26373       10.22257        1.13681
N        -18.99965        9.16873        0.92832
H         -0.61969        8.12954        1.22943
H         -0.01212        9.10396        6.11093
H          2.23154        8.44573        1.09655
H         -5.26643        7.10943        5.26106
H         -4.30507        4.38577        4.38135
H         -3.27756        0.32201        3.24107
H         -3.55145        1.26414        1.77028
H         -4.86666        0.24346        2.46978
H         -6.02543        1.80221        1.31604
H         -7.14430        3.65853        0.13206
H         -7.65033        5.77385       -0.83676
H         -8.13360        8.46354        0.47979
H         -8.69142        6.43784       -2.76319
H         -8.66193       11.84064        0.90897
H         -8.07407       10.28065        0.74718
H        -11.00071       10.97572        1.40747
H         -9.78291       10.48506        2.58465
H        -10.36838        9.33270        1.36969
H        -10.26512       13.02592        0.52837
H        -10.97549       13.87514       -0.76015
H         -7.93506       13.58968       -0.31694
H         -8.91255       15.02980       -0.00150
H         -8.65355       14.46807       -1.66266
H        -11.72391       13.24835       -5.74389
H        -10.77242       14.97777       -2.51769
H        -13.10996       14.77011       -4.48286
H        -11.92317       17.22270       -3.17886
H        -13.56511       18.97082       -2.16205
H        -15.69327       18.90851       -0.77020
H        -17.21196       18.00977        0.89512
H        -17.80124       16.30324        2.69503
H        -17.27618       13.73333        3.05514
H        -12.88509       13.34447        1.04274
H        -13.19945       11.77170        0.36527
H        -12.94213       11.97114        2.15102
H        -14.33001        7.88107        0.20171
H        -12.93676        8.82303       -0.33093
H        -14.51810        9.16406       -1.05084
H        -16.41867        8.33526        0.74759
