97

C        -14.49697        4.27318        8.94210
C        -13.87714        4.47882       10.13332
C        -14.59729        4.58769       11.36683
N        -15.17381        4.69107       12.35708
C        -12.47364        4.65029       10.27158
N        -11.32626        4.77612       10.37569
C        -15.98560        4.17583        8.73373
C        -16.22995        4.26100        7.36634
C        -17.48591        4.18312        6.77096
C        -18.59583        3.98874        7.60993
C        -18.38133        3.91449        8.99469
C        -17.08244        4.01430        9.57607
S        -19.88164        3.68150        9.82636
C        -20.75587        3.63072        8.38151
C        -19.97978        3.82681        7.27155
Br       -22.60257        3.33248        8.29676
C        -14.99602        4.43316        6.61265
O        -14.98821        4.76174        5.44583
C        -13.86063        4.23143        7.58116
C        -12.58028        3.99073        7.21890
C        -12.06525        3.88958        5.89089
S        -12.81274        3.13945        4.53418
C        -11.69913        3.81906        3.38916
C        -10.61484        4.22801        4.12533
C        -10.79049        4.20397        5.51797
S         -9.27373        4.66374        6.38417
C         -8.63428        4.87458        4.72139
N         -9.40400        4.66038        3.64585
C        -11.93832        3.84590        1.97578
C        -13.17005        3.78227        1.42585
C        -13.43928        4.04719        0.01987
C        -14.11272        5.09099       -0.50465
C        -14.25240        5.30770       -1.93011
C        -14.58774        6.56633       -2.25064
C        -14.69140        7.44720       -1.09702
S        -14.82394        6.44980        0.36167
C        -14.47388        8.77993       -1.13187
C        -14.09554        9.52725       -2.32301
C        -13.31682       10.58607       -2.05156
C        -13.06919       10.75303       -0.63203
S        -14.26263        9.83435        0.26726
C        -12.00392       11.42276       -0.15917
C        -11.60148       11.50626        1.20983
S        -12.05821       12.87411        2.11830
C        -11.21481       12.33238        3.50910
C        -10.58332       11.11339        3.31835
C        -10.77454       10.67688        1.96392
S        -10.16408        9.17968        1.28454
C        -11.53975        8.18083        1.88962
C        -11.55112        6.88923        1.14766
S         -9.69953       10.39051        4.68918
C         -9.02796        8.76997        4.29131
C         -8.28058        8.21596        5.50129
C        -11.22194       13.18557        4.63600
C        -12.11869       13.02948        5.61951
C        -12.11311       13.94549        6.73141
C        -12.63676       13.77274        7.95899
C        -13.36335       12.52626        8.39314
C        -12.48700       14.79962        9.06544
N        -11.66043       15.93750        8.69632
C        -10.29276       16.02775        8.70201
C         -9.39553       15.04380        8.79269
H        -17.59277        4.24846        5.69056
H        -17.00448        3.93940       10.65423
H        -20.36201        3.83838        6.25695
H        -11.82236        3.87221        7.98413
H         -7.60267        5.19304        4.62869
H        -11.08117        4.10121        1.35175
H        -14.05242        3.59432        2.02774
H        -12.99000        3.32436       -0.65931
H        -14.05134        4.53587       -2.66100
H        -14.68389        6.91097       -3.27030
H        -14.34079        9.21489       -3.32719
H        -12.86425       11.21559       -2.80526
H        -11.31686       11.88071       -0.86681
H        -12.48623        8.68963        1.74353
H        -11.48034        8.01010        2.96418
H        -11.87531        7.01803        0.11175
H        -12.27732        6.27359        1.66793
H        -10.58338        6.38408        1.15517
H         -8.33528        8.83505        3.44998
H         -9.81872        8.05701        4.05904
H         -7.43362        7.60482        5.17090
H         -8.94113        7.57065        6.08859
H         -7.88950        8.98333        6.17470
H        -10.45418       13.95469        4.68380
H        -12.85067       12.22789        5.58396
H        -11.57624       14.87155        6.52766
H        -13.81066       11.97673        7.56065
H        -14.18212       12.77652        9.07646
H        -12.67436       11.85695        8.91936
H        -12.07528       14.32484        9.96273
H        -13.48401       15.17502        9.32581
H        -12.16408       16.79893        8.50631
H         -9.94345       17.05322        8.58924
H         -9.69440       14.00357        8.85733
H         -8.33292       15.25811        8.76825
