99

C         -9.50395        4.89034       -1.78500
C        -10.39623        5.67569       -2.52136
C         -9.84956        6.65210       -3.32480
C         -8.48424        6.85888       -3.40215
C         -8.25932        7.96013       -4.33608
O         -7.16494        8.41694       -4.60330
N         -9.49155        8.33273       -4.80036
C        -10.49586        7.60787       -4.22059
O        -11.69871        7.68851       -4.37767
C         -9.70734        9.38983       -5.76602
C         -9.87694       10.74339       -5.09696
C         -7.58092        6.09250       -2.68960
C         -8.09758        5.08242       -1.86434
C         -7.21469        4.22857       -1.09327
O         -7.74725        3.72534        0.07463
C         -5.94494        3.75314       -1.19944
C         -4.79542        3.74323       -2.04609
O         -4.65591        4.29525       -3.12122
N         -3.89048        2.94859       -1.37184
C         -4.36069        2.43969       -0.17722
O         -3.78432        1.70691        0.60612
C         -5.69037        2.96369       -0.07573
C         -6.79929        2.93829        0.72635
C         -7.03395        2.30664        1.96888
C         -8.28317        2.06990        2.41391
C         -8.58826        1.50074        3.69944
C         -7.71029        0.58796        4.25505
S         -8.10405        0.18837        5.84381
C         -9.48700        1.19055        5.81544
C         -9.73772        1.77568        4.57632
C        -10.96697        2.53267        4.46273
C        -11.37114        3.17041        3.13341
C        -12.14487        2.23889        2.20746
C        -11.84964        2.68744        5.63165
C        -13.15243        3.47509        5.50910
C        -14.36225        2.59805        5.20797
C        -11.47576        2.12736        6.90870
C        -12.06727        2.14021        8.25150
C        -11.29404        1.47195        9.17914
S         -9.90366        0.79731        8.49714
C        -10.29526        1.39712        6.94519
C        -13.33407        2.68811        8.64482
C        -13.64808        3.21611        9.84240
C        -14.99857        3.62615       10.19606
C        -16.08389        2.83383       10.18519
C        -17.43257        3.25090       10.48900
C        -18.34960        2.28363       10.31753
C        -17.79242        1.01364        9.88080
S        -16.03895        1.13578        9.79488
C        -18.45220       -0.11942        9.57086
C        -19.88511       -0.34053        9.58555
C        -20.24845       -1.58737        9.24382
C        -19.13402       -2.45724        8.93233
S        -17.62544       -1.59407        9.06348
C        -19.23872       -3.75304        8.59388
C        -18.10993       -4.55748        8.31087
S        -17.39453       -4.74530        6.74285
C        -16.11330       -5.77336        7.32985
C        -16.30036       -5.94363        8.65594
C        -17.38887       -5.28829        9.18612
O        -17.61253       -5.43554       10.52309
C        -16.54587       -6.26119       10.83378
N        -16.45417       -6.65319       12.21033
O        -15.51431       -7.40711       12.50173
O        -17.31083       -6.22849       12.99418
C        -15.72108       -6.60143        9.75304
H         -9.90620        4.10587       -1.14455
H        -11.46812        5.51878       -2.46825
H        -10.60402        9.15434       -6.34930
H         -8.84945        9.42211       -6.44609
H        -10.74369       10.74628       -4.42798
H        -10.02395       11.52208       -5.85179
H         -8.99467       11.00341       -4.50303
H         -6.51517        6.28522       -2.77792
H         -2.97706        2.72983       -1.73883
H         -6.15832        2.04420        2.56635
H         -9.11096        2.33639        1.77021
H         -6.81689        0.16358        3.81705
H        -11.93470        4.09422        3.27135
H        -10.47922        3.53100        2.62051
H        -13.14262        2.01919        2.58831
H        -11.63401        1.28322        2.05992
H        -12.28212        2.71060        1.22837
H        -13.09060        4.28199        4.77836
H        -13.32375        4.02476        6.43938
H        -14.31645        2.16499        4.20985
H        -15.27945        3.19360        5.26047
H        -14.45588        1.76243        5.90736
H        -11.49625        1.31271       10.22950
H        -14.13494        2.59877        7.91906
H        -12.89477        3.35024       10.61421
H        -15.08945        4.66370       10.50821
H        -17.66931        4.25651       10.80853
H        -19.40585        2.43482       10.48932
H        -20.59697        0.42988        9.84648
H        -21.27523       -1.92491        9.20374
H        -20.21330       -4.22760        8.54012
H        -15.35145       -6.15673        6.66539
H        -14.84365       -7.23252        9.79005
