114

C         -4.31000        3.79956        0.45657
C         -3.09090        3.68999       -0.10755
C         -2.08074        4.68092        0.08477
N         -1.26123        5.48349        0.22751
C         -2.70789        2.55294       -0.87959
N         -2.42075        1.63948       -1.53020
C         -4.81154        4.88611        1.34595
C         -5.89388        4.38576        2.08135
C         -6.65876        5.14001        2.95595
C         -6.31285        6.49898        3.10867
C         -5.23291        7.01440        2.37228
C         -4.47522        6.22693        1.46775
S         -4.99119        8.68986        2.72511
C         -6.25806        8.70389        3.84002
C         -6.92026        7.50998        3.92662
Br        -6.70765       10.20334        4.86741
C         -6.19588        3.00416        1.68170
O         -6.97047        2.23437        2.21069
C         -5.36981        2.78189        0.46344
C         -5.82386        1.99483       -0.51887
N         -6.96311        1.21748       -0.52313
C         -7.44787        0.47648       -1.55478
S         -8.26178       -1.00102       -1.20542
C         -8.26740       -1.45104       -2.83935
N         -8.65762       -2.77633       -3.23555
O         -8.57728       -3.03141       -4.44514
O         -9.02232       -3.57031       -2.35940
C         -7.85763       -0.43649       -3.67303
C         -7.40651        0.69408       -2.92754
C         -6.87222        1.86394       -3.55630
C         -7.58358        2.95978       -3.87777
C         -7.03732        4.17916       -4.51419
C         -5.66676        4.34544       -4.76956
C         -5.20322        5.50234       -5.38529
C         -6.10860        6.51833       -5.76245
C         -7.46315        6.38701       -5.50119
C         -7.92082        5.21815       -4.87480
C         -5.38453        7.58609       -6.41357
C         -4.02020        7.25822       -6.43472
C         -3.75788        5.88521       -5.75909
C         -2.87609        6.17911       -4.51475
C         -2.46884        5.02277       -3.61769
C         -3.13899        4.96531       -6.84916
C         -2.70109        3.55760       -6.47355
C         -3.08208        8.10461       -7.01661
C         -3.49789        9.30966       -7.59669
C         -4.87396        9.62364       -7.58036
C         -5.81999        8.76857       -6.98885
C         -2.55330       10.23443       -8.25813
C         -1.22411       10.05243       -8.32682
C         -0.33209       10.91243       -9.07960
C          0.87226       10.54915       -9.54982
C          1.67665       11.36267      -10.43090
C          2.62373       10.66616      -11.07771
C          2.63101        9.25189      -10.74221
S          1.59905        8.97442       -9.34139
C          3.20337        8.26222      -11.45233
C          3.92250        8.40557      -12.70485
C          4.06960        7.25185      -13.37317
C          3.49161        6.11726      -12.68728
S          3.01134        6.55439      -11.06774
C          3.32941        4.90437      -13.23672
C          2.66013        3.82841      -12.57914
S          0.95481        3.73793      -12.80640
C          0.76918        2.26621      -11.92495
C          2.02058        1.80721      -11.53608
C          3.10624        2.76042      -11.81721
C          4.44167        2.52411      -11.40052
S          5.80128        3.63801      -11.55110
C          4.62510        1.27604      -10.76104
C          3.58461        0.33517      -10.53090
C          2.24709        0.57284      -10.88709
O          1.28085       -0.35987      -10.63052
C         -0.53375        1.69401      -11.76010
C         -1.64672        2.42080      -11.58603
H         -7.50904        4.70210        3.47212
H         -3.68871        6.69638        0.88500
H         -7.77849        7.33635        4.56443
H         -5.29385        1.95875       -1.46185
H         -7.35698        1.05851        0.41191
H         -7.83139       -0.51231       -4.75464
H         -5.80966        1.80957       -3.76712
H         -8.65220        2.97578       -3.66895
H         -4.95845        3.57678       -4.49705
H         -8.16583        7.16639       -5.77877
H         -8.98759        5.12424       -4.67897
H         -3.39675        6.90752       -3.87512
H         -1.94958        6.67718       -4.82991
H         -3.31340        4.40596       -3.31254
H         -2.01389        5.42535       -2.70811
H         -1.70964        4.39069       -4.07792
H         -2.25390        5.45309       -7.27922
H         -3.85358        4.87332       -7.67965
H         -1.73666        3.56478       -5.96146
H         -2.55417        2.96725       -7.38490
H         -3.42826        3.02747       -5.86054
H         -2.04238        7.79879       -7.01868
H         -5.22787       10.54350       -8.04246
H         -6.87158        9.03562       -6.99940
H         -3.00384       11.08476       -8.76442
H         -0.75818        9.19518       -7.85149
H         -0.72176       11.89410       -9.33779
H          1.47932       12.41224      -10.59580
H          3.27483       11.10175      -11.82115
H          4.25392        9.35771      -13.09335
H          4.52972        7.17264      -14.34872
H          3.64812        4.72226      -14.25926
H          5.12547        4.74703      -11.20995
H          5.62510        1.01041      -10.41362
H          3.85673       -0.60148      -10.04718
H          1.68340       -1.10316      -10.15242
H         -0.61788        0.61135      -11.73468
H         -1.64946        3.50613      -11.56067
H         -2.60369        1.92838      -11.44490
