84

C         -2.65228        0.14178       -0.59969
C         -1.96067       -0.77107        0.12479
C         -1.18463       -1.80795       -0.47198
N         -0.55820       -2.65299       -0.95902
C         -1.95416       -0.76912        1.54726
N         -2.00370       -0.78693        2.70817
C         -2.74112        0.20874       -2.09947
C         -3.34890        1.41407       -2.44769
C         -3.73136        1.77238       -3.73438
C         -3.43755        0.87121       -4.77441
C         -2.76302       -0.31805       -4.45984
C         -2.41756       -0.67470       -3.12575
S         -2.44561       -1.23704       -5.89022
C         -3.22213       -0.10372       -6.87215
C         -3.73046        0.95935       -6.17706
Br        -3.36982       -0.28048       -8.73096
C         -3.60602        2.22685       -1.26477
O         -3.92819        3.39341       -1.29249
C         -3.40522        1.31971       -0.08502
C         -4.01970        1.55710        1.09161
C         -4.85344        2.70457        1.28852
C         -6.23363        2.89161        1.15620
C         -7.25374        1.90448        0.85186
O         -8.42327        2.02414        1.19163
O         -6.86024        0.80733        0.15531
C         -6.43763        4.30172        1.36232
N         -5.29040        4.87354        1.73711
O         -4.32365        3.90925        1.67033
C         -7.67120        5.01682        1.12273
C         -7.82913        6.28831        0.70838
C         -9.08617        6.82635        0.21951
C         -8.91836        7.85147       -0.63409
C         -7.52073        8.19851       -0.83470
S         -6.55978        7.45673        0.44558
C         -6.96774        8.76797       -1.92255
C         -7.63095        9.04895       -3.18267
C         -6.79129        8.98720       -4.23304
C         -5.41581        8.70565       -3.85044
S         -5.23497        8.97545       -2.13267
C         -4.45588        8.25281       -4.67838
C         -3.14831        7.84877       -4.24402
C         -1.92485        7.78969       -4.92405
C         -1.70078        8.19576       -6.28929
O         -2.29788        9.11974       -6.82610
O         -0.76599        7.47797       -6.97308
C         -0.98484        7.30416       -3.96995
N         -1.58297        7.03771       -2.81099
O         -2.90291        7.34927       -2.98350
C          0.42629        7.16972       -4.16495
C          1.26259        6.33594       -3.52876
C          1.08652        5.33496       -2.46985
C          0.13086        4.37278       -2.42379
C          0.03414        3.41259       -1.37754
N         -0.06664        2.60443       -0.54746
C         -0.74606        4.16367       -3.53768
N         -1.36964        3.98338       -4.49677
C          2.32865        5.39449       -1.64814
C          3.30460        6.07033       -2.39545
C          2.72314        6.61904       -3.63077
O          3.29994        7.21726       -4.51295
C          4.61603        6.25334       -1.98186
C          4.97284        5.74138       -0.71631
C          3.98793        5.11147        0.06387
C          2.65202        4.93081       -0.38167
S          4.63607        4.61025        1.58640
C          6.17935        5.16465        1.18700
C          6.24267        5.75721       -0.04467
Br         7.66002        4.98431        2.31931
H         -4.24179        2.71367       -3.92325
H         -1.93394       -1.63049       -2.96171
H         -4.27197        1.78015       -6.63304
H         -3.96566        0.87742        1.93439
H         -5.95190        0.85698       -0.17395
H         -8.57641        4.41545        1.16389
H        -10.04594        6.38782        0.45523
H         -9.72770        8.34303       -1.15475
H         -8.69920        9.18810       -3.27210
H         -7.10716        9.07840       -5.26330
H         -4.68839        8.12357       -5.73256
H         -0.45712        6.66690       -6.52692
H          0.87123        7.90400       -4.83831
H          5.33104        6.78124       -2.60732
H          1.93127        4.45326        0.27363
H          7.14721        6.18019       -0.46716
