86

C         -6.20627       -0.17096        0.54278
C         -6.69323       -1.46955        0.53952
C         -5.80400       -2.52775        0.40420
C         -4.41438       -2.30811        0.28125
C         -3.92381       -0.98027        0.28395
N         -2.60065       -0.68822        0.17175
C         -2.23627        0.61225        0.18291
C         -3.15441        1.62703        0.31336
N         -4.47297        1.38211        0.43254
C         -4.85280        0.09056        0.41754
C         -3.49687       -3.47512        0.14340
C         -2.26649       -3.57762       -0.52078
C         -1.71066       -4.87050       -0.40717
C         -2.52910       -5.69708        0.32232
S         -3.90920       -4.99398        0.90571
C         -1.94047       -6.97196        0.39699
C         -0.73954       -6.95800       -0.26794
C         -0.52320       -5.62143       -0.82617
C          0.52068       -5.18858       -1.55854
C          1.61218       -6.03820       -1.88183
N          2.50839       -6.73076       -2.14422
C          0.58512       -3.85839       -2.05253
N          0.64893       -2.77621       -2.46851
C         -0.10252       -8.21785       -0.20589
C         -0.85239       -9.15188        0.52942
S         -2.37143       -8.42575        1.04775
C         -0.55804      -10.52871        0.85861
C         -1.05273      -11.04993        2.00218
C         -0.83834      -12.41373        2.39347
C         -0.07041      -13.34767        1.56335
C          0.51611      -13.02472        0.41208
S          0.44938      -11.42784       -0.27808
C         -0.08992      -14.58495        2.23492
C         -0.80589      -14.46445        3.40100
C         -0.83420      -15.64710        4.15689
C         -0.16085      -16.65405        3.48256
S          0.52548      -16.11621        1.98253
C         -1.28680      -13.10259        3.48553
C         -2.06656      -12.56824        4.58336
C         -2.94726      -13.29274        5.29816
C         -3.62226      -12.77412        6.43802
C         -3.52491      -11.50833        7.01426
C         -4.33551      -11.38332        8.15239
C         -5.00569      -12.55393        8.41155
S         -4.72025      -13.79008        7.34145
C         -5.79206      -12.37456        9.56189
C         -5.63088      -11.09140       10.02860
C         -4.68805      -10.38360        9.16109
C         -4.24112       -9.11623        9.26297
C         -4.66533       -8.25429       10.30741
N         -5.00557       -7.53491       11.15863
C         -3.31289       -8.57779        8.33085
N         -2.54370       -8.14485        7.57200
C         -6.42030      -10.86736       11.17653
C         -7.14264      -12.01301       11.53857
S         -6.81791      -13.32747       10.43680
C         -8.10017      -12.22815       12.65426
C         -8.21917      -13.51381       13.22540
C         -9.10006      -13.75963       14.26754
C         -9.88390      -12.72095       14.74795
C         -9.80296      -11.44537       14.21156
N        -10.60972      -10.49970       14.72932
C        -10.51878       -9.26561       14.19572
C         -9.64429       -8.97571       13.17564
N         -8.83393       -9.91294       12.64199
C         -8.89606      -11.17219       13.15077
H         -6.89796        0.66228        0.64548
H         -7.75953       -1.65518        0.64025
H         -6.21847       -3.53374        0.39128
H         -1.17598        0.81281        0.08286
H         -2.85878        2.66937        0.32772
H         -1.82194       -2.74243       -1.04788
H          0.85811       -8.46575       -0.64377
H         -1.66056      -10.45860        2.67747
H          1.07426      -13.77015       -0.14572
H         -1.30779      -15.78797        5.11945
H         -0.02697      -17.67958        3.79638
H         -1.87406      -11.52257        4.81787
H         -3.15031      -14.32302        5.02571
H         -2.88367      -10.74848        6.59299
H         -6.48859       -9.93792       11.72981
H         -7.62103      -14.34841       12.86512
H         -9.17442      -14.75428       14.69934
H        -10.58010      -12.90913       15.56177
H        -11.17669       -8.51389       14.61495
H         -9.56899       -7.98135       12.75132
