95

C          2.14887        3.05599       -8.70421
C          1.09274        3.93772       -8.90514
F          0.71131        4.23157      -10.15489
C          0.42312        4.51226       -7.83390
C          0.81543        4.20395       -6.53071
C          1.87628        3.31311       -6.29689
C          2.55417        2.72516       -7.40422
C          3.60188        1.80470       -7.19328
C          3.95238        1.43866       -5.90102
C          3.29615        2.06656       -4.83177
C          2.27323        2.98948       -4.99439
C          3.85027        1.61077       -3.54751
O          3.49474        1.97227       -2.44519
C          4.96661        0.66463       -3.89414
C          4.86720        0.40084       -5.33847
C          5.27567       -0.71163       -5.99456
C          5.75230       -1.86241       -5.30400
N          6.11227       -2.81128       -4.73838
C          5.21420       -0.84832       -7.40875
N          5.19659       -0.94458       -8.56792
C          5.87278        0.41687       -2.93146
C          7.18906       -0.23367       -2.94707
C          7.67557       -0.94127       -1.84193
N          8.90381       -1.52809       -1.68982
C          9.84283       -1.48344       -2.67897
C          9.49948       -0.80229       -3.87835
C          8.13708       -0.14245       -3.99968
N          7.98587        0.50075       -5.17403
S          9.36990        0.25189       -6.05177
N         10.25672       -0.64076       -4.98018
C         11.17083       -2.08123       -2.49616
C         11.66725       -2.71000       -1.40680
C         10.91735       -2.89194       -0.11282
C         13.07250       -3.26521       -1.41704
N         12.99700       -4.65904       -1.79347
C         13.93348       -5.61710       -1.49916
C         13.93376       -6.87494       -1.95553
C         14.94776       -7.85570       -1.61393
C         14.99927       -9.12285       -2.05409
C         16.06401      -10.05170       -1.75134
C         16.01086      -11.18266       -2.47146
C         14.89216      -11.23264       -3.39819
S         13.82877       -9.85551       -3.11871
C         14.69274      -12.13306       -4.37946
C         15.55876      -13.24314       -4.72835
C         15.18264      -13.89950       -5.83633
C         14.00469      -13.34474       -6.46760
S         13.33386      -12.05945       -5.50008
C         13.51932      -13.74683       -7.65365
C         12.40872      -13.13763       -8.37300
C         11.80558      -13.60678       -9.47624
C         10.58305      -13.10051      -10.13045
C         10.25912      -11.81157      -10.40229
C          9.12738      -11.46274      -11.20553
N          8.21009      -11.19188      -11.86095
C         11.07358      -10.71475       -9.99457
N         11.72521       -9.81537       -9.67272
C          9.87522      -14.30205      -10.63599
C         10.77558      -15.36985      -10.66035
C         12.06304      -14.96450      -10.06855
O         13.07848      -15.62665      -10.05472
C         10.43083      -16.65937      -11.04385
C          9.07410      -16.90249      -11.36362
C          8.16061      -15.83748      -11.29956
C          8.54197      -14.52300      -10.94574
S          6.55884      -16.36071      -11.67459
C          7.06674      -17.95187      -11.90462
C          8.41288      -18.12683      -11.72394
Br         5.89303      -19.34054      -12.35191
H          2.63527        2.62450       -9.57520
H         -0.40103        5.19390       -8.01991
H          0.27900        4.65846       -5.69983
H          4.10203        1.38758       -8.06122
H          1.79238        3.42739       -4.12339
H          5.63192        0.79090       -1.93095
H          7.04186       -1.06905       -0.96261
H         11.81261       -2.00505       -3.37341
H         11.59043       -3.16263        0.70741
H         10.42749       -1.96580        0.20282
H         10.17327       -3.68884       -0.20782
H         13.53610       -3.14741       -0.43028
H         13.70796       -2.72484       -2.12822
H         12.39354       -4.86645       -2.58635
H         14.70994       -5.27119       -0.81996
H         13.12957       -7.18284       -2.61958
H         15.74614       -7.49896       -0.96644
H         16.84298       -9.83018       -1.03478
H         16.74751      -11.96882       -2.39021
H         16.44799      -13.49701       -4.16930
H         15.72963      -14.73275       -6.25672
H         14.02118      -14.57947       -8.14316
H         12.02104      -12.22511       -7.92522
H         11.16665      -17.45904      -11.03143
H          7.78299      -13.75127      -10.86949
H          8.91559      -19.08138      -11.82144
