98

C         -6.93922        6.08632        4.17642
C         -6.90566        6.17343        5.52785
C         -7.59814        7.18149        6.25393
N         -8.14666        8.00579        6.85906
C         -6.21819        5.22542        6.33861
N         -5.65496        4.45447        7.00247
C         -7.75289        6.93072        3.24535
C         -7.87419        6.25125        2.03090
C         -8.62614        6.70271        0.95092
C         -9.25514        7.96050        1.07225
C         -9.06706        8.69381        2.25531
C         -8.32074        8.19491        3.35739
S         -9.84934       10.23273        2.15589
C        -10.49218        9.88216        0.63490
C        -10.09763        8.66615        0.14557
Br       -11.63730       11.04280       -0.28779
C         -7.04172        5.04229        2.03083
O         -7.01334        4.21347        1.14455
C         -6.29792        5.04951        3.33388
C         -5.13892        4.40508        3.55305
C         -4.38102        3.77622        2.52141
C         -4.39603        2.49380        1.98025
C         -3.39583        2.34335        0.92538
C         -3.10566        1.29207        0.01067
C         -1.93942        1.30205       -0.77140
C         -1.08621        2.39729       -0.73270
C         -1.40445        3.50318        0.05197
C         -2.55537        3.45891        0.86484
S         -3.10763        4.72216        1.86759
C         -1.61008        0.16994       -1.58889
N         -1.32069       -0.73624       -2.25473
C         -5.34046        1.50796        2.46952
C         -5.19967        0.19035        2.70440
C         -6.25421       -0.65047        3.24217
C         -5.98574       -1.96545        3.18317
C         -4.70564       -2.25568        2.56017
S         -3.77167       -0.76907        2.43970
C         -4.30572       -3.43913        2.05067
C         -5.00491       -4.70958        2.12939
C         -4.50064       -5.65699        1.32307
C         -3.40078       -5.18623        0.51055
S         -2.87112       -3.61204        1.04047
C         -2.92757       -5.84535       -0.55625
C         -1.96868       -5.34132       -1.53071
C         -1.60554       -5.96404       -2.66251
C         -0.80822       -5.36035       -3.70747
C         -0.91524       -6.00146       -4.88249
C         -1.83271       -7.13093       -4.83091
S         -2.15593       -7.54567       -3.15363
C         -2.50103       -7.66587       -5.86981
C         -2.40364       -7.24073       -7.25125
C         -3.43971       -7.63547       -8.00520
C         -4.41772       -8.41719       -7.27964
S         -3.80265       -8.84903       -5.70352
C         -5.63139       -8.72798       -7.76393
C         -6.66769       -9.47166       -7.08212
C         -7.75179      -10.10853       -7.55145
C         -8.38027      -10.43877       -8.85012
C         -7.79985      -10.54475      -10.07284
C         -8.47504      -11.09807      -11.20116
N         -9.00224      -11.56332      -12.12417
C         -6.45281      -10.19049      -10.36540
N         -5.38146       -9.88083      -10.68912
C         -9.79076      -10.87508       -8.53666
C         -9.91834      -11.01091       -7.15460
C         -8.68745      -10.60439       -6.47811
O         -8.51672      -10.63215       -5.27646
C        -11.08194      -11.40428       -6.50061
C        -12.22480      -11.65563       -7.28588
C        -12.13026      -11.49125       -8.67594
C        -10.92244      -11.09993       -9.31962
S        -13.65113      -11.81196       -9.43676
C        -14.39333      -12.16008       -7.96038
C        -13.54816      -12.05220       -6.88940
Br       -16.19788      -12.63891       -7.80120
H         -8.70613        6.11145        0.04228
H         -8.20174        8.82104        4.23516
H        -10.39699        8.27828       -0.82156
H         -4.59051        4.52827        4.48114
H         -3.77709        0.43896       -0.05673
H         -0.17000        2.41143       -1.32043
H         -0.75984        4.37866        0.05685
H         -6.31419        1.92466        2.72720
H         -7.17578       -0.24583        3.63777
H         -6.67652       -2.73022        3.50817
H         -5.85392       -4.87976        2.77467
H         -4.90137       -6.65956        1.23769
H         -3.36739       -6.81622       -0.77627
H         -1.60393       -4.32681       -1.37576
H         -0.25242       -4.44253       -3.56529
H         -0.44207       -5.65647       -5.79047
H         -1.59841       -6.62623       -7.62654
H         -3.55445       -7.38780       -9.05071
H         -5.89063       -8.31517       -8.73280
H         -6.54494       -9.45754       -5.99381
H        -11.10800      -11.48541       -5.41683
H        -10.93683      -10.96915      -10.39599
H        -13.84547      -12.23396       -5.86321
