100

C         13.70240      -11.67264       -2.33794
C         13.28180      -10.40759       -2.28154
C         14.12493       -9.24326       -2.24709
C         13.44550       -8.10276       -2.05868
C         12.00999       -8.29245       -1.90967
S         11.59760       -9.98611       -2.20278
C         11.11545       -7.35752       -1.53488
C         11.40481       -5.97384       -1.20518
C         10.35320       -5.29760       -0.72139
C          9.14338       -6.08654       -0.64083
S          9.40231       -7.68803       -1.28489
C          7.99228       -5.63521       -0.11926
C          6.82284       -6.44168        0.02005
S          5.69056       -6.46273       -1.27517
C          4.68673       -7.58087       -0.47943
C          5.14876       -7.92678        0.77467
C          4.42643       -8.86988        1.68546
C          6.38597       -7.24003        1.07562
C          7.06988       -7.40306        2.33379
C          7.82333       -6.48117        2.95406
C          8.42377       -6.69085        4.24868
C          9.25456       -5.80009        4.81328
C          9.86207       -6.01035        6.08865
S         10.09273       -4.64338        7.10630
C         10.81252       -5.54963        8.39923
C         10.86132       -6.88734        8.05088
C         10.35560       -7.13154        6.72366
C         10.37068       -8.38768        6.11425
C         10.87861       -9.41337        6.92622
O         10.94012      -10.71877        6.48459
C         11.02645      -10.85757        5.06284
C         11.34217       -9.18080        8.25766
C         11.37719       -7.90283        8.87462
C         11.18424       -4.89820        9.61437
C         11.58436       -3.61690        9.66614
C         11.84077       -2.90086       10.89881
C         10.94925       -2.68986       11.87954
C         11.20600       -1.90540       13.06177
C         10.12970       -1.74818       13.84577
C          8.93082       -2.39509       13.33976
S          9.30454       -3.27484       11.86498
C          7.69415       -2.32687       13.86681
C          7.29874       -1.56802       15.03667
C          5.98631       -1.62086       15.30234
C          5.24120       -2.44981       14.38298
S          6.29313       -3.14406       13.17839
C          3.92671       -2.69787       14.49036
C          3.16351       -3.58973       13.62961
C          2.03401       -4.24877       13.95027
C          1.31751       -5.29935       13.19341
C          1.30798       -5.49492       11.84360
C          0.59094       -6.54869       11.20928
N          0.02219       -7.41156       10.68319
C          1.98283       -4.61928       10.94427
N          2.50677       -3.90760       10.19151
C          0.48092       -6.04427       14.19300
C          0.54124       -5.35877       15.40998
C          1.42540       -4.19705       15.32144
O          1.59320       -3.38886       16.21034
C         -0.14541       -5.73762       16.55844
C         -0.98003       -6.87146       16.47907
C         -1.04028       -7.57598       15.26773
C         -0.29994       -7.19288       14.12073
S         -2.12612       -8.91626       15.38569
C         -2.52312       -8.53664       16.98155
C         -1.83754       -7.45775       17.47062
Br        -3.78492       -9.49447       17.98060
H         14.75669      -11.92219       -2.35966
H         12.99690      -12.49842       -2.34389
H         15.19972       -9.29847       -2.34761
H         13.92644       -7.13769       -1.99315
H         12.38529       -5.53199       -1.31054
H         10.39957       -4.26680       -0.39727
H          7.92973       -4.62117        0.26392
H          3.78699       -7.92828       -0.96745
H          3.49904       -9.23286        1.22957
H          4.16410       -8.37107        2.62427
H          5.04940       -9.74126        1.91249
H          6.91479       -8.35679        2.83673
H          7.99000       -5.50843        2.50565
H          8.14990       -7.61098        4.75871
H          9.46841       -4.86220        4.30574
H         10.02848       -8.55053        5.10918
H         11.10263      -11.91962        4.81971
H         11.92280      -10.35052        4.68726
H         10.12932      -10.48945        4.55163
H         11.71436      -10.03495        8.82525
H         11.77403       -7.75805        9.87099
H         11.09602       -5.47337       10.53285
H         11.72006       -3.02314        8.76477
H         12.82585       -2.44385       10.95739
H         12.17493       -1.47589       13.27477
H         10.15102       -1.18110       14.76459
H          7.99557       -0.99955       15.63471
H          5.51940       -1.11136       16.13452
H          3.38749       -2.22070       15.30583
H          3.63308       -3.76856       12.66609
H         -0.05078       -5.16183       17.47469
H         -0.38556       -7.79961       13.22871
H         -1.95155       -7.07342       18.47723
