106

C         -1.08819        2.44845        4.41184
C         -1.88880        3.58883        4.44129
F         -1.30970        4.79342        4.52768
C         -3.27088        3.48420        4.37523
F         -4.03347        4.58526        4.38217
C         -3.87798        2.23674        4.29821
C         -3.09361        1.07375        4.28358
C         -1.66950        1.17363        4.32397
C         -0.87064        0.00579        4.25701
C         -1.47415       -1.24357        4.16271
C         -2.87314       -1.29826        4.14971
C         -3.69543       -0.18311        4.21042
C         -3.32994       -2.67626        3.95022
O         -4.46434       -3.06188        4.13775
C         -2.11355       -3.44799        3.51142
C         -0.95583       -2.63614        3.98269
C          0.27395       -3.08802        4.33046
C          1.28313       -2.23883        4.86387
N          2.10512       -1.53359        5.29220
C          0.61769       -4.46784        4.24537
N          0.88392       -5.59528        4.16096
C         -2.11851       -4.50707        2.67118
C         -3.29050       -5.03695        2.03664
S         -3.43397       -6.68743        1.59557
C         -5.08807       -6.53458        1.02749
C         -5.50380       -5.20577        1.19438
C         -4.40232       -4.36690        1.58519
C         -6.85296       -4.63205        1.02617
O         -7.81353       -5.31662        0.68138
C         -7.02675       -3.13926        1.32501
C         -5.70949       -7.74229        0.55312
N         -6.33835       -8.70600        1.36642
C         -6.66753       -8.61220        2.76937
C         -5.67829       -9.31794        3.68571
C         -6.69855       -9.86043        0.63829
O         -7.22693      -10.89050        1.00491
C         -6.23843       -9.54034       -0.70811
C         -5.64095       -8.22393       -0.70744
C         -5.15906       -8.00034       -2.09907
O         -4.57512       -7.02574       -2.52756
N         -5.53712       -9.18794       -2.77907
C         -5.17749       -9.47661       -4.16097
C         -3.82472      -10.16640       -4.28282
C         -6.17461      -10.08310       -1.92867
C         -6.67082      -11.36372       -2.35117
C         -6.26602      -12.52104       -1.80701
C         -6.84438      -13.76967       -2.16067
S         -6.89499      -14.99949       -0.98589
C         -7.89572      -16.04392       -1.93688
C         -7.92701      -15.57496       -3.25531
C         -7.37764      -14.23716       -3.34395
C         -8.46929      -16.32545       -4.40545
O         -8.90258      -17.47170       -4.29706
C         -8.44201      -15.66387       -5.76537
C         -8.39460      -17.26667       -1.36414
C         -8.73035      -17.45295       -0.07490
C         -8.75226      -18.85279        0.46943
O         -9.01538      -19.88341       -0.11050
C         -8.28748      -18.71675        1.87007
C         -8.00369      -19.73582        2.76007
C         -7.47358      -19.38484        4.00988
C         -7.17185      -18.01671        4.30063
C         -6.59467      -17.68340        5.53270
C         -6.36381      -18.67225        6.48185
C         -6.69303      -19.99439        6.21757
C         -7.23358      -20.35947        4.98797
F         -6.49551      -20.93567        7.15040
F         -5.83114      -18.33240        7.66338
C         -7.48072      -17.00958        3.37282
C         -8.10257      -17.36135        2.18768
C         -8.71630      -16.57325        1.09729
C         -9.45251      -15.45322        1.29731
C        -10.47289      -15.06699        0.37117
N        -11.35889      -14.79743       -0.31847
C         -9.37618      -14.69211        2.49950
N         -9.27488      -14.08675        3.48833
H         -0.00971        2.57659        4.45718
H         -4.96298        2.19053        4.24248
H          0.21051        0.11854        4.24355
H         -4.77548       -0.30106        4.16356
H         -1.18415       -4.95942        2.35202
H         -4.47945       -3.28897        1.66575
H         -8.08587       -2.87209        1.37327
H         -6.54964       -2.53576        0.54466
H         -6.59241       -2.87548        2.29704
H         -7.64001       -9.10438        2.90380
H         -6.79268       -7.56514        3.05424
H         -5.56990      -10.37832        3.43121
H         -6.03283       -9.26084        4.72085
H         -4.68758       -8.85870        3.64044
H         -5.15194       -8.53412       -4.71611
H         -5.95257      -10.10183       -4.61900
H         -3.02102       -9.52193       -3.91335
H         -3.61397      -10.40633       -5.33066
H         -3.79284      -11.10090       -3.71230
H         -7.44042      -11.34320       -3.12068
H         -5.52067      -12.51117       -1.01171
H         -7.36560      -13.64816       -4.25291
H         -7.41306      -15.41972       -6.04590
H         -9.05722      -14.76048       -5.75421
H         -8.84648      -16.34795       -6.51747
H         -8.39744      -18.13812       -2.02078
H         -8.19762      -20.76830        2.48289
H         -6.33699      -16.65627        5.77852
H         -7.47666      -21.40443        4.81591
H         -7.25026      -15.97223        3.60171
