116

C          0.61066       -1.78488       -6.33710
C          0.88636       -2.13872       -7.66046
F          1.74191       -1.39470       -8.37342
C          0.29355       -3.25196       -8.23952
F          0.59719       -3.61415       -9.49299
C         -0.62435       -4.00377       -7.52696
C         -0.93992       -3.64361       -6.21564
C         -0.29028       -2.54439       -5.57213
C         -0.54597       -2.27008       -4.19918
C         -1.44122       -3.07209       -3.49950
C         -2.09488       -4.08904       -4.20871
C         -1.88166       -4.39354       -5.53467
C         -2.92850       -4.90009       -3.33471
O         -3.77854       -5.67790       -3.70755
C         -2.51432       -4.52395       -1.95218
C         -1.86169       -3.19417       -2.06814
C         -1.85183       -2.21453       -1.13211
C         -2.45441       -2.40205        0.15015
N         -2.96492       -2.58260        1.17570
C         -1.35905       -0.90307       -1.40258
N         -0.97485        0.16345       -1.63942
C         -2.58456       -5.39929       -0.93398
C         -3.11411       -6.76136       -0.98241
C         -2.37306       -7.89580       -0.86383
N         -0.93148       -7.93708       -0.74379
O         -0.26696       -7.01991       -1.24693
O         -0.44792       -8.91806       -0.16264
C         -3.18473       -9.08889       -0.84432
C         -4.46930       -8.73143       -0.98481
C         -4.53842       -7.26681       -1.10949
C         -5.68008       -6.56260       -1.31793
C         -5.74871       -5.10711       -1.43919
C         -7.00974       -4.75693       -1.71280
C         -7.82453       -5.94881       -1.72336
N         -9.26706       -5.87899       -1.87848
O         -9.73637       -4.76242       -2.14406
O         -9.95212       -6.89412       -1.71822
C         -7.08649       -7.06425       -1.51755
C         -7.56591       -8.43064       -1.49341
C         -8.13937       -9.05009       -2.54058
C         -8.57368      -10.40185       -2.43614
O         -8.34892      -11.15737       -1.31828
C         -8.82583      -12.42752       -1.49284
C         -9.40275      -12.48794       -2.75275
C         -9.24036      -11.20800       -3.35552
O         -9.59001      -10.71491       -4.57252
C        -10.26473      -11.61702       -5.43845
C        -10.00354      -13.67143       -3.27393
N        -10.48450      -14.63886       -3.69784
C         -8.68111      -13.43348       -0.50051
C         -8.07454      -13.13996        0.65734
C         -7.88580      -14.08972        1.70876
C         -7.76510      -13.72785        3.00232
C         -7.60250      -14.93758        3.81225
C         -7.56128      -16.04649        2.85088
C         -7.71688      -15.53384        1.62621
C         -7.33055      -17.42190        3.09320
N         -7.13416      -18.54883        3.27893
C         -7.54821      -14.96888        5.16010
C         -7.50019      -16.17653        5.98133
C         -7.53861      -15.81818        7.27896
C         -7.57073      -14.36420        7.34355
C         -7.57594      -13.84767        6.10523
C         -7.55546      -12.46268        5.85245
N         -7.52652      -11.31187        5.66124
C         -7.53437      -16.76734        8.36304
C         -7.65322      -16.42354        9.65147
C         -7.61591      -17.39411       10.71164
C         -8.13127      -17.27643       11.94082
C         -7.62491      -18.25341       12.95400
O         -7.00852      -19.28072       12.76625
C         -7.97851      -17.68716       14.25882
C         -7.68337      -18.27176       15.47739
C         -8.18202      -17.66475       16.62882
C         -8.92287      -16.45008       16.52353
C         -9.45864      -15.87879       17.68622
C         -9.27910      -16.50138       18.91807
C         -8.54979      -17.67779       19.01608
C         -7.99097      -18.25815       17.88352
F         -8.39062      -18.27639       20.20383
F         -9.83325      -15.95951       20.01079
C         -9.14792      -15.85823       15.26199
C         -8.70282      -16.49334       14.11043
C         -8.93994      -16.26817       12.64807
C         -9.91831      -15.48374       12.13195
C        -10.43604      -15.67921       10.81526
N        -10.91621      -15.84602        9.77358
C        -10.58517      -14.46715       12.88088
N        -11.09921      -13.61862       13.48149
H          1.11226       -0.91497       -5.92166
H         -1.07273       -4.87412       -7.99945
H          0.00551       -1.46922       -3.71159
H         -2.40560       -5.23081       -5.98674
H         -2.10952       -5.15749        0.01599
H         -2.80780      -10.09128       -0.70927
H         -5.28308       -9.43470       -0.98055
H         -4.95209       -4.39654       -1.37624
H         -7.36733       -3.75800       -1.90823
H         -7.43113       -8.95185       -0.54670
H         -8.30283       -8.53622       -3.48308
H        -10.55131      -11.06940       -6.34064
H        -11.18683      -11.99453       -4.98482
H         -9.60170      -12.43365       -5.74403
H         -9.06851      -14.42946       -0.69475
H         -7.71619      -12.12995        0.85477
H         -7.84185      -12.71117        3.35171
H         -7.69400      -16.08230        0.69409
H         -7.47844      -17.19860        5.63582
H         -7.57285      -13.79428        8.26009
H         -7.46233      -17.81898        8.08535
H         -7.74115      -15.37830        9.93651
H         -7.01529      -18.27916       10.48436
H         -7.11860      -19.20037       15.51108
H        -10.04398      -14.96365       17.64950
H         -7.43327      -19.18464       17.99311
H         -9.71168      -14.93170       15.22900
