80

C          0.19397        3.95198        4.71391
N         -0.13911        2.72980        4.19331
C          0.97405        2.23910        3.58223
N          1.13242        1.06903        2.93346
C          2.39642        0.95819        2.47738
N          2.96247       -0.06261        1.78716
C          4.28021        0.26511        1.57201
N          4.56884        1.45541        2.06799
C          3.41066        1.89565        2.63553
N          3.20646        3.06054        3.29179
C          1.94887        3.21608        3.76996
N          1.44819        4.27525        4.47476
C          5.22277       -0.59074        0.91790
S          6.84880       -0.07613        0.74062
C          7.34603       -1.53167       -0.04715
C          6.26414       -2.37706       -0.14569
C          5.06857       -1.84705        0.38334
S          3.65416       -2.87835        0.28306
C          4.45952       -4.23832       -0.49936
O          3.87330       -5.26929       -0.78370
S          6.18227       -3.99477       -0.82645
C          8.70108       -1.75077       -0.42704
C          9.56331       -0.74523       -0.63748
C         10.95159       -0.94393       -0.97089
C         11.53209       -0.58090       -2.14207
N         10.83779        0.01102       -3.27875
O         11.53615        0.29437       -4.26164
O          9.61666        0.20034       -3.21720
C         12.92894       -0.95385       -2.17643
C         13.25021       -1.53896       -1.01073
C         12.07279       -1.50099       -0.13256
C         12.04865       -1.85162        1.17904
C         10.83524       -2.02067        1.97859
C         11.17642       -2.39675        3.21455
C         12.61416       -2.43603        3.29751
N         13.28826       -2.69156        4.55773
O         12.56168       -2.85614        5.54990
O         14.52044       -2.74439        4.58779
C         13.19548       -2.14021        2.10845
C         14.61896       -2.01935        1.87851
C         15.23365       -0.87486        1.53815
C         16.64542       -0.81994        1.36924
S         17.30527       -0.05567       -0.03245
C         18.94546       -0.28052        0.47568
C         18.95541       -0.99462        1.65700
C         17.67357       -1.26999        2.16657
S         17.60405       -2.08552        3.72847
C         19.34199       -2.21376        3.94555
O         19.85200       -2.71131        4.94314
S         20.30883       -1.58123        2.61736
C         19.99695        0.24840       -0.32970
C         21.15288        0.64088        0.22567
C         22.23199        1.07402       -0.56519
N         23.49817        0.86409       -0.06176
C         24.38309        1.34698       -0.96789
N         25.72944        1.36375       -0.90319
C         26.24035        1.95074       -2.00246
N         27.54407        2.16682       -2.32375
C         27.55918        2.80587       -3.53512
N         26.34773        3.00526       -4.01305
C         25.51236        2.47405       -3.06823
N         24.15858        2.42412       -3.09457
C         23.60109        1.84165       -2.00775
N         22.27221        1.64356       -1.75612
H         -0.51881        4.55967        5.25753
H         -1.03209        2.26480        4.24601
H          2.50306       -0.91577        1.50724
H          9.04587       -2.78137       -0.49319
H          9.23938        0.29550       -0.62243
H         13.56164       -0.84765       -3.04559
H         14.18984       -2.02888       -0.81348
H          9.81216       -1.95421        1.67655
H         10.49773       -2.64477        4.01687
H         15.19239       -2.93018        2.05157
H         14.66699        0.03803        1.37013
H         19.85211        0.32568       -1.40771
H         21.30101        0.62106        1.29955
H         23.73723        0.40977        0.80658
H         28.33949        1.90108       -1.76445
H         28.48323        3.10038       -4.02032
