69

C          0.34101       -1.03694        2.23233
O         -0.39062        0.08826        2.04110
C          0.32798        1.04633        2.74258
N          1.40315        0.49488        3.29111
N          1.40940       -0.84399        2.96099
C         -0.07047        2.40599        2.83293
C         -1.18897        2.87017        2.23612
C         -1.31228        4.30660        2.51934
C         -0.13981        4.63795        3.35216
C          0.57213        3.50895        3.52427
C          0.24998        5.87765        3.90576
N          0.62057        6.87959        4.36566
C         -2.31256        5.10568        2.08436
C         -2.44476        6.53940        2.34969
C         -3.57668        7.00829        1.77387
C         -4.20825        5.87842        1.10016
C         -3.48264        4.75990        1.26833
C         -3.85213        3.51217        0.71436
N         -4.16208        2.49703        0.24570
C         -4.01247        8.38521        1.84368
N         -4.69570        9.07453        0.82960
C         -5.10300        8.58272       -0.45934
C         -4.99928       10.39810        1.20337
O         -5.57865       11.26703        0.58518
C         -4.43830       10.48853        2.55425
C         -3.84923        9.21923        2.88119
C         -3.30438        9.32531        4.24975
O         -2.73273        8.46087        4.88061
N         -3.62182       10.64772        4.61087
C         -3.23968       11.21987        5.88160
C         -4.28444       11.31929        3.58328
C         -4.73549       12.67322        3.71167
C         -4.80640       13.56552        2.70978
C         -5.21227       14.97590        2.86457
C         -5.85871       15.69164        1.83281
C         -6.26834       17.06191        1.99294
N         -6.91483       17.68017        0.97720
C         -7.15288       17.00230       -0.17919
C         -6.75391       15.69859       -0.33286
N         -6.10804       15.04574        0.66909
C         -6.98758       14.94837       -1.53228
N         -7.19149       14.37175       -2.52209
C         -7.84479       17.72919       -1.20585
N         -8.40535       18.28325       -2.05545
C         -6.02978       17.77112        3.18857
C         -5.34236       17.10045        4.23533
C         -4.91974       15.67756        4.06889
N         -4.26047       15.21088        5.14539
S         -4.21474       16.41120        6.27173
N         -4.98616       17.60098        5.43234
C         -6.42358       19.15145        3.39224
O         -6.73915       19.52991        4.67477
C         -7.01310       20.85024        4.51999
N         -6.92409       21.25627        3.27749
N         -6.54721       20.14929        2.54012
H         -0.02119       -1.94767        1.78063
H         -1.85693        2.25903        1.65254
H          1.49100        3.40275        4.08611
H         -1.75290        7.13999        2.91809
H         -5.13773        5.93789        0.55427
H         -4.26089        8.11267       -0.97212
H         -5.47246        9.40517       -1.08159
H         -5.92571        7.87688       -0.32420
H         -2.72002       10.48018        6.49691
H         -4.13430       11.55304        6.41622
H         -2.57147       12.06952        5.71104
H         -5.01432       12.95919        4.72138
H         -4.57468       13.26636        1.68851
H         -7.26578       21.41046        5.40704
