118

C          2.12944        3.01705       -0.15524
C          3.18814        3.37341        0.61262
C          4.48449        2.82122        0.43102
N          5.54521        2.36699        0.27358
C          3.10438        4.38821        1.61300
N          3.03073        5.21302        2.42460
C          2.13891        2.09111       -1.32622
C          1.02482        2.37894       -2.11976
C          0.69559        1.68141       -3.27700
C          1.52614        0.60158       -3.65281
C          2.64844        0.30594       -2.86220
C          2.97464        1.04072       -1.69189
S          3.51982       -1.04356       -3.50346
C          2.41694       -1.24005       -4.76583
C          1.40310       -0.32026       -4.74954
Br         2.56384       -2.58906       -6.05784
C          0.21178        3.44350       -1.50761
O         -0.70508        4.02316       -2.04753
C          0.78448        3.63258       -0.13227
C          0.08435        4.08662        0.91986
C         -1.28629        4.60155        0.87424
C         -1.48696        5.97286        0.68796
C         -2.78945        6.45215        0.66114
C         -3.89290        5.59204        0.81187
C         -3.69855        4.23678        1.02080
C         -2.38846        3.74352        1.05323
C         -5.11243        6.36254        0.71824
C         -4.79485        7.72745        0.54223
C         -3.26358        7.90767        0.49282
C         -2.70979        8.67872        1.72677
C         -3.10232       10.13533        1.87550
C         -2.76990        8.49573       -0.85559
C         -2.96069        7.59132       -2.07967
C         -5.81092        8.67703        0.42196
C         -7.15351        8.26812        0.52745
C         -7.44724        6.89558        0.65114
C         -6.43120        5.93963        0.74803
C         -8.28710        9.20998        0.47328
C         -8.25809       10.46693        0.94568
C         -9.39767       11.36248        0.84779
C         -9.34212       12.70232        0.78381
C        -10.48849       13.54788        0.53453
C        -10.15731       14.77194        0.09523
C         -8.72207       14.96762       -0.02955
S         -7.87605       13.64995        0.78645
C         -8.10443       15.88963       -0.79175
C         -8.74292       16.85838       -1.66426
C         -7.93901       17.29240       -2.64884
C         -6.60903       16.71170       -2.59909
S         -6.36633       15.92435       -1.05764
C         -5.76201       16.68966       -3.64182
C         -4.51556       15.99791       -3.64917
O         -3.71634       15.76288       -2.52857
C         -3.83515       15.42221       -4.68963
C         -3.89232       15.23428       -6.10596
O         -4.66570       15.74435       -6.89601
N         -2.82073       14.40667       -6.38043
C         -2.03619       14.11874       -5.28074
O         -0.99792       13.48410       -5.24871
C         -2.70417       14.76901       -4.19782
C         -2.59124       15.00784       -2.85591
C         -1.57279       14.63056       -1.93916
C         -1.65796       14.94879       -0.63768
C         -0.63429       14.59080        0.32104
C         -0.76524       14.37949        1.63922
C         -1.89400       14.33847        2.58593
C         -3.16950       13.94972        2.32630
C         -4.19039       13.93090        3.31763
N         -5.02244       13.92758        4.12739
C         -3.57706       13.39456        1.07756
N         -3.90776       12.85559        0.10024
C         -1.30128       14.48124        3.96201
C          0.08759       14.35415        3.85694
C          0.49692       14.27615        2.44715
O          1.63793       14.17808        2.04470
C          0.95210       14.26710        4.94617
C          0.38243       14.26737        6.23919
C         -1.00255       14.45590        6.35895
C         -1.85646       14.60279        5.23296
S         -1.48898       14.44228        8.01863
C          0.07886       14.10188        8.54254
C          0.99500       14.06496        7.52536
Br         0.51542       13.79524       10.33878
H         -0.19603        1.93729       -3.84275
H          3.83835        0.74021       -1.10955
H          0.59819       -0.29635       -5.47466
H          0.48981        4.08245        1.92729
H         -0.64638        6.64874        0.56935
H         -4.54019        3.56777        1.15873
H         -2.23455        2.68000        1.22242
H         -1.61115        8.65680        1.69768
H         -2.99404        8.15974        2.65203
H         -2.67932       10.72069        1.05837
H         -2.69836       10.53405        2.81310
H         -4.18297       10.27998        1.91461
H         -1.69706        8.72229       -0.78868
H         -3.27327        9.45000       -1.05108
H         -2.14856        6.85848       -2.15238
H         -2.93531        8.18666       -2.99801
H         -3.90904        7.04730       -2.06176
H         -5.56863        9.72141        0.24671
H         -8.48156        6.55881        0.68425
H         -6.68158        4.88914        0.84425
H         -9.19392        8.82333        0.01286
H         -7.35434       10.86045        1.40515
H        -10.36807       10.87976        0.74638
H        -11.50601       13.19529        0.62897
H        -10.88478       15.51379       -0.20050
H         -9.78248       17.14076       -1.57791
H         -8.25901       17.95813       -3.43877
H         -6.07503       17.13626       -4.58273
H         -2.57072       14.12555       -7.31284
H         -0.72989       14.06045       -2.32189
H         -2.52000       15.50645       -0.27590
H          0.37174       14.54686       -0.10526
H          2.02180       14.14273        4.79855
H         -2.91572       14.74635        5.40951
H          2.05015       13.86595        7.67217
