121

C         -2.23933       -1.40956       -0.09662
C         -0.91603       -1.46735        0.19520
C         -0.15126       -2.66785        0.10122
N          0.47288       -3.65025        0.02983
C         -0.16740       -0.30635        0.55976
N          0.44112        0.63784        0.85856
C         -3.08343       -2.52455       -0.63013
C         -4.23264       -1.97396       -1.20315
C         -5.23797       -2.71901       -1.80944
C         -5.10142       -4.12364       -1.81631
C         -3.96553       -4.69169       -1.21874
C         -2.94321       -3.90851       -0.61865
S         -4.01478       -6.41778       -1.31691
C         -5.49999       -6.39626       -2.11901
C         -5.98038       -5.13359       -2.33888
Br        -6.40542       -7.94875       -2.64825
C         -4.26604       -0.51781       -1.01601
O         -5.08791        0.22498       -1.50966
C         -3.09560       -0.19760       -0.12840
C         -3.01115        0.92712        0.60093
C         -4.00294        2.00620        0.61389
C         -3.89085        3.09160       -0.27224
C         -4.81629        4.12382       -0.17427
C         -5.85165        4.05399        0.78046
C         -5.98442        2.97279        1.63557
C         -5.04610        1.94878        1.55849
C         -6.61891        5.26996        0.74460
C         -6.09007        6.13412       -0.23349
C         -4.91485        5.45510       -0.96369
C         -3.59654        6.28018       -0.86471
C         -3.02056        6.52153        0.53805
C         -5.27472        5.09551       -2.44634
C         -5.69380        6.22613       -3.38671
C         -6.60904        7.41566       -0.37286
C         -7.64388        7.83278        0.48608
C         -8.17931        6.93766        1.43019
C         -7.67108        5.64950        1.56009
C         -8.18971        9.18639        0.32712
C         -8.64802        9.95238        1.33185
C         -9.19138       11.30235        1.13405
C        -10.22487       11.86203        1.94422
N        -10.95604       11.42259        3.05083
C        -10.64714       10.22598        3.81241
C        -11.40284        9.01358        3.29850
C        -11.97615       12.31685        3.39700
C        -11.75862       13.44535        2.59659
C        -10.70311       13.15318        1.67817
C        -10.13841       13.90824        0.62450
C         -9.11650       13.37956       -0.15320
C         -8.65341       12.10258        0.10547
C        -12.57082       14.58906        2.76516
C        -13.58048       14.60293        3.72099
C        -13.82285       13.47256        4.48042
C        -13.07292       12.29287        4.31434
C        -13.45070       11.09622        5.07364
C        -14.70910       10.77955        5.43118
C        -14.99482        9.60862        6.18533
O        -16.28873        9.25254        6.52089
C        -16.27781        8.09749        7.28254
C        -14.95682        7.71431        7.40220
C        -14.17060        8.63954        6.72634
F        -12.86987        8.59650        6.64077
F        -14.51398        6.66701        8.03764
C        -17.44019        7.50198        7.82783
C        -18.65609        7.62504        7.24388
C        -19.58598        6.93643        8.10436
C        -20.91992        6.78956        8.01395
C        -21.55377        6.08146        9.10621
C        -22.85202        5.83290        9.35258
C        -22.98662        5.10823       10.62891
C        -21.75150        4.86320       11.12706
C        -20.81200        5.49037       10.23064
C        -19.47675        5.61728       10.31012
C        -18.84814        6.36719        9.24271
C        -17.56435        6.71254        9.06018
C        -24.19803        4.66658       11.27072
C        -25.36248        5.32015       11.17223
H         -6.10951       -2.22955       -2.23620
H         -2.10524       -4.41623       -0.15441
H         -6.91906       -4.92201       -2.83748
H         -2.21738        1.09722        1.32171
H         -3.08966        3.12597       -1.00261
H         -6.78249        2.93156        2.36861
H         -5.12917        1.11359        2.24981
H         -3.73829        7.26221       -1.33276
H         -2.81255        5.77488       -1.44343
H         -3.72307        7.03310        1.20270
H         -2.12612        7.15309        0.46390
H         -2.70483        5.58833        1.01532
H         -6.09225        4.36068       -2.46009
H         -4.41747        4.58573       -2.90797
H         -6.68299        6.61497       -3.12691
H         -5.77540        5.84211       -4.41243
H         -4.97830        7.05189       -3.40344
H         -6.21083        8.09525       -1.11990
H         -9.00054        7.23258        2.07677
H         -8.08157        4.97302        2.30082
H         -8.18708        9.55186       -0.69476
H         -8.58304        9.56645        2.33398
H        -10.83874       10.43361        4.86544
H         -9.57063       10.07482        3.82926
H        -12.43895        9.25778        3.04147
H        -11.41016        8.22056        4.05101
H        -10.94161        8.61437        2.39119
H        -10.50497       14.90818        0.41302
H         -8.68172       13.95759       -0.96266
H         -7.84545       11.72309       -0.51689
H        -12.41047       15.46433        2.14326
H        -14.19925       15.48555        3.85092
H        -14.63341       13.50989        5.20637
H        -12.66221       10.42667        5.36022
H        -15.55172       11.40890        5.16727
H        -18.90478        8.14319        6.33197
H        -21.50877        7.19382        7.20172
H        -23.68787        6.12012        8.73394
H        -21.49946        4.34812       12.03772
H        -18.88976        5.21471       11.12481
H        -16.73775        6.48621        9.71512
H        -24.13742        3.77370       11.88900
H        -25.46038        6.23461       10.59533
H        -26.24420        4.96476       11.69442
