104

C         -0.71629        1.17267        4.52066
C          0.26681        0.57686        3.79610
C          1.55900        0.29340        4.32484
N          2.61527        0.06131        4.74748
C          0.07039        0.12595        2.46020
N         -0.09530       -0.23687        1.36895
C         -0.64100        1.53988        5.97104
C         -1.94018        1.75186        6.43676
C         -2.25331        2.10308        7.74503
C         -1.18853        2.27232        8.65571
C          0.12216        2.08075        8.19891
C          0.41875        1.71823        6.85725
S          1.26447        2.35043        9.46686
C          0.04328        2.71720       10.59795
C         -1.21140        2.64226       10.04215
C         -2.91992        1.61391        5.35231
O         -4.12374        1.65978        5.49780
C         -2.11932        1.42126        4.09205
C         -2.62434        1.60986        2.85882
C         -3.99200        1.91320        2.60074
C         -5.05212        1.03299        2.37992
C         -6.26117        1.73257        2.17300
C         -6.06792        3.09644        2.17189
S         -4.49855        3.57342        2.44708
C         -7.30410        3.73376        1.91616
C         -8.27973        2.77218        1.76769
C         -7.67707        1.44476        1.93627
C         -8.27891        0.24162        1.89797
C         -7.55315       -0.97175        2.10056
N         -6.96764       -1.95867        2.25246
C         -9.67595        0.11418        1.67040
N        -10.82161        0.01622        1.48007
C         -9.54257        3.35078        1.49782
C         -9.46829        4.74594        1.43966
S         -7.84030        5.29753        1.74070
C        -10.54132        5.68962        1.16775
C        -10.65821        7.00718        1.61961
C        -11.82581        7.64400        1.12117
C        -12.58003        6.76250        0.38784
S        -11.91027        5.25303        0.18665
C        -13.78416        7.39940        0.02544
C        -13.80243        8.68847        0.52503
C        -12.52100        8.95632        1.18558
C        -11.97560       10.11637        1.63207
C        -10.49021       10.02068        1.94007
N         -9.25795        9.94131        2.19559
C        -12.66032       11.47314        1.60514
N        -13.22836       12.59869        1.58279
C        -15.03844        9.31905        0.24409
C        -15.89802        8.46728       -0.46746
S        -15.13980        6.93221       -0.80691
C        -17.24418        8.66111       -0.91658
C        -17.44056        9.18005       -2.14465
C        -18.76390        9.36674       -2.68355
C        -19.97491        9.01876       -1.92459
C        -19.97136        8.48232       -0.70476
S        -18.51146        8.13209        0.17889
C        -21.07185        9.36561       -2.74003
C        -20.61611        9.89196       -3.92504
C        -21.64699       10.27042       -4.79929
C        -22.87903       10.00011       -4.21812
S        -22.73755        9.30252       -2.63312
C        -19.17244        9.87352       -3.88541
C        -18.33369       10.33978       -4.96570
C        -17.46965        9.54473       -5.61687
C        -16.58352       10.00988       -6.66676
C        -15.70602        9.25599       -7.34685
C        -15.39815        7.82559       -7.29586
C        -16.28593        6.81068       -7.43514
C        -15.90147        5.44045       -7.42474
N        -15.57724        4.32671       -7.38509
C        -17.64638        7.06890       -7.78279
N        -18.73098        7.27997       -8.13623
C        -13.94454        7.69679       -7.57429
C        -13.53585        8.87624       -8.20944
C        -14.60298        9.89930       -8.13345
O        -14.55637       11.03090       -8.56559
C        -12.29066        9.02834       -8.80356
C        -11.39636        7.93249       -8.73869
C        -11.77397        6.79035       -8.01250
C        -13.04120        6.65949       -7.39740
S        -10.51727        5.60528       -8.01257
C         -9.54709        6.54438       -9.02329
C        -10.09729        7.76016       -9.33087
Br        -7.88160        5.97155       -9.66026
H         -3.28542        2.26088        8.04524
H          1.45931        1.61113        6.57283
H          0.29921        2.97342       11.61751
H         -2.11716        2.84629       10.60108
H         -2.00114        1.57310        1.97262
H         -4.92165       -0.04244        2.39469
H        -10.47045        2.81170        1.35180
H         -9.92023        7.44277        2.28151
H        -15.33280       10.31688        0.54846
H        -16.59883        9.47012       -2.76552
H        -20.90585        8.24366       -0.20606
H        -21.52743       10.70222       -5.78458
H        -23.86190       10.17022       -4.63692
H        -18.45821       11.38460       -5.24128
H        -17.40252        8.50308       -5.31229
H        -16.57613       11.08842       -6.83767
H        -12.03164        9.94536       -9.32577
H        -13.28133        5.75178       -6.85351
H         -9.61659        8.49621       -9.96407
