102

C         -2.33870       -2.44548        1.98199
C         -2.35866       -3.41962        1.04217
C         -1.30888       -4.37317        0.90444
N         -0.45388       -5.14971        0.79605
C         -3.46893       -3.61045        0.16992
N         -4.37171       -3.75152       -0.54503
C         -1.28797       -2.23787        3.02647
C         -1.85235       -1.49036        4.06218
C         -1.16072       -1.03819        5.17657
C          0.20564       -1.37302        5.26895
C          0.78412       -2.14216        4.24832
C          0.05644       -2.57829        3.10833
S          2.45090       -2.45131        4.57861
C          2.41090       -1.56105        6.03116
C          1.16779       -1.02974        6.27604
C         -3.25304       -1.18697        3.76708
O         -4.08183       -0.83702        4.57988
C         -3.42734       -1.49209        2.31065
C         -4.26595       -0.83755        1.48632
C         -5.08294        0.27884        1.86183
C         -4.88687        1.27722        2.82307
C         -5.94772        2.19913        2.85719
C         -6.85548        1.95208        1.85676
S         -6.54422        0.59603        0.95061
C         -7.83128        2.96942        1.87443
C         -7.55444        3.84547        2.90162
C         -6.35443        3.38639        3.61060
C         -5.77742        3.90100        4.71627
C         -4.62052        3.31548        5.30717
N         -3.66297        2.86335        5.78112
C         -6.29819        5.06148        5.35182
N         -6.72309        6.01272        5.86688
C         -8.49773        4.89953        2.94562
C         -9.46248        4.76248        1.93976
S         -9.15181        3.36256        0.95306
C        -10.57865        5.64744        1.65954
C        -10.63024        7.02296        1.88856
C        -11.85710        7.59321        1.45681
C        -12.70750        6.61284        1.01165
S        -12.08115        5.07489        1.00011
C        -13.94162        7.20602        0.69068
C        -13.88135        8.56637        0.91823
C        -12.54282        8.91321        1.37805
C        -11.97560       10.11637        1.63207
C        -10.49021       10.02068        1.94007
N         -9.25795        9.94131        2.19559
C        -12.66032       11.47314        1.60514
N        -13.22836       12.59869        1.58279
C        -15.11284        9.18487        0.62434
C        -16.06087        8.24037        0.21417
S        -15.39780        6.63713        0.14959
C        -17.43653        8.45233       -0.16569
C        -18.50054        7.54904       -0.06546
C        -19.67422        8.08409       -0.63211
C        -19.45472        9.35113       -1.11574
S        -17.92348        9.94582       -0.89856
C        -20.60161        9.77582       -1.80542
C        -21.54128        8.77367       -1.78763
C        -21.04853        7.68434       -0.94161
C        -21.72922        6.62038       -0.47268
C        -21.13695        5.70396        0.43663
N        -20.64426        4.96987        1.19359
C        -23.09658        6.41468       -0.80231
N        -24.21261        6.25381       -1.07723
C        -22.60802        9.06229       -2.67072
C        -22.46094       10.32826       -3.25404
S        -20.99135       11.10197       -2.70381
C        -23.22767       10.92572       -4.30084
C        -23.45657       12.24113       -4.44447
C        -23.12553       13.42419       -3.63886
C        -23.33276       13.60341       -2.30941
C        -22.92722       14.77002       -1.60989
N        -22.56236       15.71048       -1.02911
C        -24.07834       12.67292       -1.52982
N        -24.74439       11.98513       -0.86905
C        -22.87052       14.53122       -4.59886
C        -23.40097       14.15314       -5.83698
C        -23.82279       12.73792       -5.81028
O        -24.29856       12.10698       -6.73027
C        -23.50509       15.01654       -6.91890
C        -23.06484       16.34915       -6.73747
C        -22.47301       16.70692       -5.51821
C        -22.32968       15.79958       -4.44427
S        -21.99524       18.36426       -5.51004
C        -22.61054       18.62451       -7.07554
C        -23.12900       17.47555       -7.62489
H         -1.65356       -0.42548        5.92716
H          0.57660       -3.13698        2.33805
H          3.30063       -1.46422        6.63839
H          0.94513       -0.42205        7.14558
H         -4.29257       -1.08694        0.42831
H         -4.01962        1.31397        3.46772
H         -8.50665        5.71649        3.65813
H         -9.78905        7.53930        2.33011
H        -15.32933       10.24257        0.71436
H        -18.39265        6.55556        0.35434
H        -23.41761        8.38868       -2.93282
H        -23.52010       10.25090       -5.10715
H        -23.94851       14.68553       -7.85362
H        -21.85277       16.13852       -3.53201
H        -22.55711       19.60787       -7.52182
H        -23.55985       17.44232       -8.61813
