73

C         -2.73370       -2.86165       -2.02722
C         -2.06747       -2.78777       -0.81019
C         -1.94502       -1.44531       -0.39543
C         -2.51334       -0.58075       -1.30643
S         -3.19710       -1.30833       -2.63560
C         -2.35335        0.73917       -0.84006
C         -1.68744        0.71195        0.36374
C         -1.39066       -0.67675        0.71825
C         -0.75903       -1.13212        1.81695
C         -0.27760       -0.25397        2.82209
N          0.11191        0.48016        3.63599
C         -0.54419       -2.51890        2.02695
N         -0.36960       -3.65803        2.19977
C         -1.49936        2.00932        0.88344
C         -2.05743        2.97391        0.04287
S         -2.75792        2.25278       -1.37924
C         -2.09915        4.42602        0.21861
C         -1.11572        5.12435        0.89542
N         -1.12063        6.46324        1.08616
C         -2.16483        7.13526        0.56941
N         -3.18566        6.55941       -0.09045
C         -3.12669        5.22192       -0.24993
C         -2.16736        8.58552        0.65949
C         -1.15172        9.32077        1.24376
N         -1.09097       10.67160        1.26418
C         -2.12388       11.30704        0.68630
N         -3.18175       10.70821        0.11271
C         -3.17513        9.36167        0.11865
C         -2.06850       12.76571        0.60449
C         -0.98985       13.63197        0.48680
C         -1.40461       15.01944        0.36251
C         -0.66644       16.21735        0.16154
C         -1.30645       17.46996        0.19857
C         -2.68472       17.55263        0.36921
C         -3.44549       16.39244        0.48866
C         -2.79101       15.14453        0.49160
S         -3.55213       13.62369        0.64398
C         -0.53252       18.67208        0.10437
N          0.09696       19.64635        0.04893
C          0.37154       13.16060        0.40413
C          1.24132       12.99023        1.41662
C          2.65670       12.57678        1.36408
C          3.17997       11.50929        0.71219
C          4.49500       11.02715        0.98764
N          5.55692       10.63223        1.24635
C          2.41126       10.71366       -0.17988
N          1.80691       10.05376       -0.92379
C          3.33912       13.31183        2.45558
C          2.36760       13.71853        3.37114
C          1.01583       13.41216        2.84597
O         -0.02222       13.48753        3.46587
C          2.67246       14.40317        4.54031
C          4.02891       14.74728        4.77186
C          4.99278       14.38851        3.81727
C          4.66892       13.66994        2.64276
S          6.56456       14.93875        4.27158
C          5.98939       15.62336        5.72073
C          4.63123       15.46137        5.86391
H         -2.97600       -3.74906       -2.59786
H         -1.70926       -3.66968       -0.29186
H         -1.01220        2.25895        1.81831
H         -0.24607        4.62325        1.31315
H         -3.97675        4.80880       -0.78625
H         -0.30767        8.82867        1.72124
H         -4.04059        8.91123       -0.36331
H          0.40867       16.16609        0.00718
H         -3.18575       18.51863        0.41796
H         -4.52541       16.44929        0.60662
H          0.69427       12.92337       -0.60754
H          1.88898       14.69248        5.23464
H          5.44848       13.43976        1.92303
H          6.67311       16.11768        6.39794
H          4.08296       15.84100        6.71769
