81

C          4.11772       -1.56252        1.42585
C          4.74401       -0.65854        2.27533
C          4.12714        0.60759        2.18830
C          3.08215        0.60451        1.28793
S          2.80214       -0.85756        0.54665
C          2.52336        1.89878        1.23104
C          3.21240        2.72100        2.09463
C          4.26540        1.94799        2.76164
C          5.15113        2.36670        3.68719
C          5.16710        3.70846        4.15468
N          5.17389        4.80638        4.52800
C          6.11771        1.48793        4.24905
N          6.90754        0.77071        4.70829
C          2.70784        4.04069        2.06226
C          1.64966        4.16006        1.15596
S          1.29645        2.63713        0.39087
C          0.88895        5.34954        0.82787
C          0.26200        5.65996       -0.38298
C         -0.36973        6.92257       -0.32843
C         -0.20885        7.50912        0.90560
S          0.66165        6.61491        2.00027
C         -0.84546        8.76701        0.89947
C         -1.41575        8.98019       -0.33518
C         -1.14285        7.82143       -1.19174
C         -1.49900        7.63184       -2.47797
C         -2.24259        8.60710       -3.19740
N         -2.84768        9.40342       -3.78601
C         -1.13877        6.45396       -3.18626
N         -0.83802        5.49237       -3.76193
C         -2.06902       10.23388       -0.39053
C         -1.93842       10.93145        0.81820
S         -1.03861       10.00237        1.98610
C         -2.44336       12.25811        1.18831
N         -3.14223       12.93235        0.25925
C         -3.62221       14.13238        0.67357
C         -3.42902       14.65319        1.94274
N         -2.70497       13.93649        2.82218
N         -2.20452       12.71801        2.43758
C         -3.96870       15.92552        2.44051
C         -3.80947       16.51611        3.70159
C         -4.50782       17.74162        3.79091
C         -5.15878       18.03259        2.61445
S         -4.97048       16.91180        1.41142
C         -5.82830       19.26396        2.74964
C         -5.60230       19.75586        4.01309
C         -4.75813       18.81761        4.75356
C         -4.31749       18.92543        6.02185
C         -4.65458       20.03865        6.83973
N         -4.93462       20.94806        7.50468
C         -3.49075       17.93141        6.61023
N         -2.81361       17.12097        7.08990
C         -6.22826       21.00517        4.19899
C         -6.90535       21.41495        3.04672
S         -6.76789       20.22573        1.78069
C         -7.63050       22.65263        2.83453
C         -8.30896       23.06449        1.68391
C         -8.84273       24.36109        1.83732
C         -8.57590       24.87163        3.08674
S         -7.71712       23.86459        4.08386
C         -9.10541       26.17489        3.17159
C         -9.70688       26.49026        1.97145
C         -9.58202       25.35416        1.05726
C        -10.03047       25.25190       -0.20881
C        -10.72735       26.31660       -0.84232
N        -11.29326       27.18827       -1.35876
C         -9.82531       24.07599       -0.98097
N         -9.65321       23.11405       -1.60710
C        -10.23491       27.79791        1.98337
C         -9.99786       28.40569        3.21046
S         -9.14914       27.37878        4.31706
H          4.36303       -2.60472        1.26947
H          5.58832       -0.93698        2.89422
H          3.08243        4.88016        2.63588
H          0.29355        4.99952       -1.24118
H         -2.60585       10.64711       -1.23828
H         -4.19192       14.66349       -0.08145
H         -3.21695       16.05579        4.48573
H         -6.19172       21.60402        5.10068
H         -8.37661       22.45237        0.79290
H        -10.75006       28.30467        1.17676
H        -10.27401       29.40476        3.52008
