108

C          1.53465        5.57598        2.96023
C          1.68640        4.24159        2.83977
C          0.37432        3.61857        2.79931
C          0.15627        2.22527        2.70119
N         -0.01794        1.07830        2.62655
C         -0.57685        4.56696        2.89214
C          0.09719        5.86110        2.98690
C         -0.45176        7.08706        3.08998
C         -1.87281        7.48468        3.10179
C         -1.89025        8.82330        3.28859
C         -0.53710        9.33225        3.38066
C          0.32876        8.31522        3.25869
C         -0.20373       10.69401        3.57841
N          0.06479       11.80930        3.73839
C         -3.09904        6.74180        2.96653
C         -3.43900        6.02386        1.88452
C         -4.68355        5.27853        1.77767
C         -5.50207        5.52800        0.73833
C         -6.75170        4.83605        0.57641
C         -7.20405        3.79685        1.50837
C         -6.52304        3.40327        2.58277
S         -4.98374        4.07712        3.03090
C         -8.44736        3.34156        1.02632
C         -8.77419        4.02244       -0.12249
C        -10.01306        3.64043       -0.65968
C        -10.57766        2.64298        0.12451
S         -9.59220        2.21869        1.49015
C         -7.70402        4.95236       -0.39383
C         -7.64277        5.86789       -1.50395
C         -7.69788        5.48994       -2.79003
C         -7.53966        6.41561       -3.88310
C         -8.36784        7.46373       -4.06201
C         -8.02449        8.09785       -5.30593
C         -8.80990        9.26309       -5.88536
N         -9.46146       10.22976       -6.36605
C         -7.06809        7.45800       -5.96153
C         -6.61437        6.44600       -5.04636
C         -5.48575        5.76063       -5.23483
C         -4.51690        5.84524       -6.35837
C         -3.61918        4.87058       -6.11671
C         -3.97146        4.21544       -4.87931
C         -5.04142        4.74832       -4.31072
C         -3.20886        3.03123       -4.30792
N         -2.57622        2.04883       -3.83391
C         -4.42555        6.67462       -7.54410
C         -4.27339        8.01247       -7.56161
C         -4.31099        8.82697       -8.77726
C         -5.23062        9.81171       -8.88001
C         -5.35239       10.64018      -10.05637
C         -4.45620       10.47538      -11.21090
C         -3.48016        9.57192      -11.28727
S         -3.12259        8.43898      -10.01620
C         -4.83847       11.44168      -12.16206
C         -5.90079       12.16706      -11.68037
C         -6.30314       13.19380      -12.55431
C         -5.52221       13.17765      -13.70146
S         -4.31637       11.93108      -13.67195
C         -6.23026       11.64600      -10.36531
C         -7.26777       12.17698       -9.50298
C         -8.40711       12.74139       -9.93670
C         -9.38161       13.38452       -9.08840
C         -9.04796       14.45384       -8.32883
C        -10.24293       15.10746       -7.84557
C        -10.24790       16.31378       -7.11552
N        -10.26157       17.31883       -6.53270
C        -11.32800       14.45058       -8.28148
C        -10.86385       13.28040       -9.02873
C        -11.64417       12.26496       -9.45723
C        -13.11563       12.11264       -9.31467
C        -13.40828       10.87452       -9.77379
C        -12.20340       10.22224      -10.24984
C        -11.15336       11.03623      -10.07501
C        -12.17140        8.97415      -10.91654
N        -12.14011        7.96920      -11.49468
C        -14.13713       13.10051       -9.04409
C        -15.24914       12.93784       -8.31598
H          2.33614        6.29465        3.01810
H          2.61995        3.70870        2.78536
H         -1.63621        4.38170        2.91833
H         -2.76928        9.45003        3.34875
H          1.40330        8.38959        3.30569
H         -3.79230        6.82465        3.80289
H         -2.77571        5.97545        1.02228
H         -5.23944        6.27784       -0.00179
H         -6.91640        2.62569        3.22978
H        -10.48081        4.04535       -1.54732
H        -11.52136        2.13566       -0.02250
H         -7.46879        6.91075       -1.24487
H         -7.81906        4.44132       -3.05600
H         -9.21342        7.73558       -3.44735
H         -6.74370        7.67537       -6.95986
H         -2.76168        4.61340       -6.72124
H         -5.47472        4.42421       -3.38248
H         -4.50957        6.13072       -8.48494
H         -4.19416        8.56636       -6.62755
H         -5.93620        9.99161       -8.07541
H         -2.85742        9.51335      -12.17476
H         -7.09251       13.91444      -12.38633
H         -5.58630       13.83950      -14.55488
H         -7.08794       12.10737       -8.43218
H         -8.64531       12.77722      -10.99720
H         -8.05451       14.85868       -8.19278
H        -12.34525       14.75096       -8.10255
H        -14.39645       10.45494       -9.89845
H        -10.13963       10.82079      -10.36732
H        -13.96887       14.06990       -9.50827
H        -15.50025       12.01375       -7.80629
H        -15.94379       13.76714       -8.20360
