113

C         -2.94251        2.64357       -5.89181
C         -1.94921        1.75548       -5.62091
C         -0.93121        1.43322       -6.56793
N         -0.10198        1.16012       -7.32969
C         -1.80259        1.12370       -4.35608
N         -1.68732        0.60461       -3.32015
C         -3.08656        3.46862       -7.13091
C         -3.95496        4.52574       -6.85810
C         -4.30962        5.50848       -7.77514
C         -3.76745        5.41791       -9.07337
C         -2.91705        4.34474       -9.37263
C         -2.56793        3.35352       -8.41584
S         -2.39214        4.41292      -11.01670
C         -3.26540        5.84474      -11.32000
C         -3.95573        6.27151      -10.21120
C         -4.49464        4.42577       -5.49920
O         -5.21428        5.25612       -4.98727
C         -3.98291        3.12234       -4.94628
C         -4.52875        2.50717       -3.88205
C         -5.56871        3.08971       -3.11341
C         -5.46191        3.87960       -1.99267
C         -6.72420        4.37440       -1.50668
C         -7.78346        3.87164       -2.26795
S         -7.20213        2.82290       -3.51465
C         -9.10554        4.23695       -1.97411
S        -10.46626        3.59318       -2.93884
C        -10.81393        2.11412       -1.95423
C         -9.40953        5.13041       -0.92796
C         -8.35300        5.61931       -0.16195
C         -7.03195        5.25014       -0.44726
S         -5.67185        5.96696        0.46827
C         -5.53774        4.73970        1.78991
S         -8.92711        6.67668        1.06417
C        -10.56206        6.55504        0.58626
C        -10.66242        5.69131       -0.48613
C        -11.62088        7.33263        1.26622
C        -11.64294        7.62638        2.65027
C        -12.71807        8.34791        3.27693
N        -12.68567        8.53542        4.61694
C        -11.62894        8.08954        5.34970
C        -10.59874        7.42615        4.74279
N        -10.61995        7.18191        3.41293
C         -9.45025        6.94469        5.44821
N         -8.52625        6.55599        6.03225
C        -11.67176        8.35440        6.74632
N        -11.68044        8.55390        7.89163
C        -13.81669        8.84971        2.54278
C        -13.81090        8.60947        1.13414
C        -12.71475        7.81620        0.49345
N        -12.91866        7.64109       -0.82504
S        -14.31657        8.40888       -1.23341
N        -14.71991        9.03308        0.23512
C        -14.98629        9.55378        3.11403
C        -16.28528        9.55043        2.64796
C        -17.17380       10.45232        3.31834
C        -16.53411       11.05672        4.39933
S        -14.89142       10.54101        4.50357
C        -17.22269       11.97863        5.19688
S        -16.46754       12.66837        6.66259
C        -15.67502       14.11417        5.92140
C        -18.52352       12.40555        4.86250
C        -19.17313       11.77978        3.79838
C        -18.51077       10.80218        3.04720
S        -19.32531       10.01732        1.66109
C        -18.75941       11.11157        0.32832
S        -20.77334       12.40052        3.60177
C        -20.55819       13.61971        4.77743
C        -19.32663       13.47790        5.38173
C        -21.56176       14.61499        4.94881
C        -21.79715       15.26734        6.09593
C        -21.25450       15.15896        7.45560
C        -21.04587       14.01556        8.15551
C        -20.45261       13.99382        9.44831
N        -19.93060       13.98483       10.48463
C        -21.49877       12.74844        7.67635
N        -21.91880       11.72722        7.32269
C        -21.33985       16.52021        8.05472
C        -22.20479       17.28381        7.26107
C        -22.55329       16.55826        6.02491
O        -23.25000       16.96752        5.12042
C        -22.66992       18.54215        7.62038
C        -22.26137       19.05476        8.87331
C        -21.33717       18.32463        9.63396
C        -20.83104       17.06780        9.22368
S        -20.95358       19.13942       11.10592
C        -22.06076       20.39323       10.78741
C        -22.66548       20.24851        9.56120
H         -4.99681        6.30394       -7.49871
H         -1.92603        2.53769       -8.72849
H         -3.23659        6.30655      -12.29771
H         -4.57584        7.16049      -10.20737
H         -4.22222        1.51974       -3.55875
H         -4.50599        4.14419       -1.55562
H        -11.68889        1.60542       -2.36680
H        -11.02591        2.37997       -0.91469
H         -9.96413        1.42731       -1.98461
H         -4.66674        4.97659        2.40669
H         -5.40539        3.73823        1.37239
H         -6.42849        4.75574        2.42297
H        -11.60226        5.47484       -0.98096
H        -16.59843        8.97213        1.78800
H        -15.14876       14.67126        6.70060
H        -16.42402       14.77082        5.47140
H        -14.95336       13.81128        5.15921
H        -19.30313       10.86415       -0.58770
H        -17.69063       10.97469        0.14104
H        -18.95210       12.16027        0.57062
H        -18.95789       14.15843        6.13791
H        -22.09250       14.92668        4.04747
H        -23.36416       19.08260        6.98287
H        -20.11634       16.55775        9.85908
H        -22.21123       21.18201       11.51179
H        -23.39485       20.95278        9.17926
