116

C         11.53329       12.03209       -5.29080
C         10.36841       12.63137       -5.68768
S         10.02948       12.26754       -7.34419
C         11.44640       11.30397       -7.50352
C         12.13447       11.27294       -6.32100
C         13.34733       10.62049       -5.91066
O         14.10018        9.95825       -6.59931
C         13.44792       10.99420       -4.43083
C         12.33014       11.95746       -4.08717
C         12.11026       12.64382       -2.93741
C         10.99050       13.51991       -2.77503
N         10.08575       14.22390       -2.64207
C         12.97730       12.57582       -1.81384
N         13.68504       12.53992       -0.89302
C         14.33594       10.38267       -3.62341
C         15.23516        9.28997       -3.99347
C         15.21830        8.08588       -3.39510
C         15.98425        6.91642       -3.76657
C         15.57618        5.78243       -3.16493
C         14.45421        5.97492       -2.26428
S         14.14758        7.71063       -2.08031
C         13.65747        5.05737       -1.68173
C         13.67051        3.60921       -1.75946
C         12.54179        3.03396       -1.29286
C         11.54873        3.98978       -0.82243
S         12.28042        5.55794       -0.72536
C         10.24574        3.74739       -0.56652
C          9.16678        4.73376       -0.24222
C          7.84881        4.47266       -0.64788
C          6.81983        5.41487       -0.44067
C          7.08554        6.65102        0.16739
C          8.38656        6.91049        0.58888
C          9.38731        5.94300        0.43594
C          6.04040        7.70741        0.27694
C          5.96231        8.65041       -0.89431
C          6.77459        9.79714       -0.91618
C          6.73656       10.67598       -2.00088
C          5.88804       10.41583       -3.07463
C          5.08146        9.27735       -3.06586
C          5.12215        8.39325       -1.98382
C          5.22417        7.90162        1.36879
C          4.13102        8.92878        1.17456
C          2.88086        8.50870        0.69129
C          1.82929        9.41724        0.56045
C          2.01339       10.75146        0.91946
C          3.24758       11.17801        1.41128
C          4.30431       10.27162        1.54064
C          5.27190        7.18327        2.72209
C          6.10289        6.11183        3.07540
C          6.09157        5.53403        4.36511
C          5.24504        6.00809        5.36494
C          4.37552        7.04235        5.02432
C          4.40722        7.62498        3.74767
C          5.19517        5.33990        6.68235
C          5.07430        5.91641        7.88969
C          4.75673        5.20168        9.11015
C          4.15279        5.98410       10.02200
C          3.99582        7.35557        9.56301
S          5.09170        7.63043        8.21036
C          3.03754        8.22932        9.92184
C          1.93947        7.98135       10.83726
C          0.90923        8.82491       10.66625
C          1.13999        9.80671        9.62572
S          2.80379        9.78176        9.12041
C          0.17986       10.57213        9.08501
C          0.32921       11.49069        7.95944
C         -0.63254       12.23696        7.38546
C         -2.07005       12.22357        7.91171
O         -2.53382       11.74516        8.92753
C         -2.78516       12.94021        6.89870
C         -4.11837       13.17640        6.70460
S         -4.35349       14.06809        5.25408
C         -2.65534       14.12460        4.92054
C         -1.94978       13.46633        5.89146
C         -0.57011       13.11220        6.14815
C          0.50151       13.50221        5.41672
C          0.37548       14.39101        4.30728
N          0.27690       15.11806        3.40773
C          1.83333       13.07248        5.66614
N          2.92697       12.72297        5.83063
H          9.67274       13.26017       -5.14913
H         11.68625       10.81562       -8.43967
H         14.34641       10.58083       -2.55592
H         15.89295        9.46120       -4.84274
H         16.78566        6.96014       -4.49130
H         16.01524        4.81284       -3.35300
H         14.50097        3.05254       -2.17172
H         12.36482        1.96646       -1.29483
H          9.88368        2.72909       -0.70006
H          7.60353        3.54422       -1.15991
H          5.81421        5.18581       -0.78594
H          8.64229        7.86721        1.03714
H         10.35738        6.19447        0.84895
H          7.43752       10.01351       -0.08213
H          7.36349       11.56402       -2.00451
H          5.85256       11.10178       -3.91714
H          4.41716        9.07908       -3.90252
H          4.48879        7.51121       -1.98981
H          2.72449        7.46659        0.42396
H          0.86776        9.08165        0.18159
H          1.19523       11.45943        0.81442
H          3.38818       12.21749        1.69687
H          5.25580       10.61259        1.94068
H          6.79706        5.66841        2.37676
H          6.76351        4.70293        4.56700
H          3.64838        7.42464        5.73746
H          3.71566        8.45049        3.59247
H          5.16175        4.25443        6.61633
H          4.91379        4.13931        9.22965
H          3.76908        5.62723       10.96677
H          1.91911        7.15404       11.53217
H         -0.02646        8.75593       11.20518
H         -0.81791       10.43898        9.49319
H          1.33049       11.49786        7.54385
H         -4.95302       12.85854        7.31609
H         -2.32915       14.62344        4.01877
