84

C          4.70053       -4.85557       -2.34843
O          5.65969       -3.95841       -2.01413
C          5.18808       -2.69127       -2.28019
C          3.90367       -2.82195       -2.79329
C          3.60059       -4.19905       -2.83804
C          2.40452       -4.80747       -3.29982
N          1.42032       -5.29192       -3.68495
C          5.97664       -1.53845       -2.04682
C          5.51642       -0.29538       -2.25621
C          6.30818        0.88494       -2.05944
N          6.12793        2.06905       -2.78151
C          5.12320        2.33114       -3.79299
C          3.85769        2.93090       -3.19799
C          7.02202        3.07553       -2.35860
O          7.14212        4.21994       -2.74351
C          7.78829        2.39995       -1.30052
C          7.28112        1.06540       -1.16126
C          8.02029        0.41071       -0.06525
O          7.87451       -0.71647        0.36033
N          8.90347        1.41926        0.35698
C          9.80772        1.22314        1.47162
C         11.10856        0.54682        1.07103
C          8.75648        2.57809       -0.40420
C          9.50621        3.76942       -0.17531
C         10.24474        4.38692       -1.11006
N         10.99465        5.53731       -0.98080
C         11.78665        6.16524       -2.04701
C         11.01145        6.59915       -3.28354
S         10.42212        8.29467       -3.00748
C         11.34959        8.54178       -1.46710
C         12.41197        7.43884       -1.41677
N         12.75295        7.08269       -0.01773
S         11.75901        5.83175        0.48673
C         13.61903        7.84365        0.83582
C         13.43900        7.86967        2.25192
C         14.36658        8.54839        3.08186
N         14.20009        8.53313        4.43260
C         13.15498        7.88002        4.97247
C         12.24187        7.25614        4.18260
N         12.37267        7.26547        2.84602
C         15.45327        9.24451        2.51828
C         15.61470        9.26405        1.11762
C         14.71580        8.55141        0.28294
N         14.93450        8.53898       -1.05730
C         15.97561        9.21145       -1.57700
C         16.82072        9.91656       -0.77707
N         16.63618        9.95954        0.55292
C         16.43870        9.94899        3.40471
S         18.16833        9.99446        3.09697
C         18.53905       10.93228        4.51130
C         17.38728       11.11450        5.18053
C         16.26178       10.60311        4.57695
N         15.14835       10.84076        5.32599
N         15.47469       11.50638        6.48275
C         16.83196       11.66887        6.38046
H          4.95127       -5.89378       -2.18476
H          3.26513       -2.00752       -3.10801
H          6.98713       -1.72236       -1.69220
H          4.50062       -0.13009       -2.59909
H          4.89550        1.41152       -4.34142
H          5.54072        3.04204       -4.51596
H          3.41445        2.26357       -2.45209
H          3.11545        3.10933       -3.98239
H          4.06836        3.88667       -2.70626
H          9.29830        0.58913        2.20714
H         10.00953        2.18076        1.95990
H         10.92648       -0.44640        0.64732
H         11.75231        0.42556        1.94879
H         11.65226        1.13692        0.32706
H          9.43840        4.18320        0.82638
H         10.27214        3.98795       -2.12253
H         12.57947        5.46087       -2.33821
H         10.18181        5.93513       -3.53828
H         11.68886        6.63669       -4.14429
H         10.64429        8.49406       -0.63079
H         11.80781        9.53521       -1.45793
H         13.25425        7.69363       -2.05821
H         13.07890        7.89078        6.05324
H         11.38456        6.72948        4.58286
H         16.09596        9.16296       -2.65217
H         17.67072       10.46182       -1.16728
H         19.54812       11.24063        4.74313
H         14.21009       10.49447        5.15621
H         17.34942       12.16896        7.18863
