96

C          5.98445       -6.99158       -0.73055
S          4.45452       -6.63449       -0.06974
C          3.60665       -7.66259       -1.19100
C          4.52270       -8.29267       -2.02217
C          5.88110       -7.89753       -1.75068
C          7.00020       -8.36282       -2.43385
C          6.66176       -9.29264       -3.44892
C          7.75424       -9.83757       -4.20316
N          8.66240      -10.26134       -4.79567
C          5.30732       -9.69606       -3.74014
C          5.05658      -10.64477       -4.79712
N          4.83606      -11.40713       -5.64212
C          4.17708       -9.20363       -3.03274
C          2.18420       -7.78702       -1.12509
C          1.38867       -6.77524       -0.73307
C         -0.03282       -6.88429       -0.68028
S         -0.87538       -7.79457       -1.88466
C         -2.41942       -7.46515       -1.21961
C         -2.30902       -6.63447       -0.12656
C         -0.94312       -6.29765        0.18570
C         -0.58334       -5.46952        1.26407
C         -1.69584       -4.99916        2.01645
C         -1.40095       -4.08364        3.13439
C         -1.17890       -4.48679        4.39166
C         -3.06481       -5.34748        1.70194
C         -4.20161       -4.85070        2.56811
C         -3.41353       -6.18096        0.60346
C         -3.54422       -8.04540       -1.85567
C         -3.95124       -9.26390       -1.47497
C         -5.09669       -9.95743       -2.04365
C         -5.50760       -9.84303       -3.36835
N         -6.57069      -10.51423       -3.87231
C         -7.22099      -11.32421       -3.00401
C         -6.79860      -11.43970       -1.68043
N         -5.73309      -10.77430       -1.17833
C         -8.35845      -12.06953       -3.54951
S         -8.67204      -13.64031       -2.90497
C        -10.05846      -13.89358       -3.88059
C        -10.23994      -12.83138       -4.73957
C         -9.26982      -11.77788       -4.54896
C         -9.28316      -10.58206       -5.28524
C        -10.33555      -10.50743       -6.23496
C        -10.44135       -9.24625       -6.98960
C         -9.79966       -9.01807       -8.14226
C        -11.29456      -11.57114       -6.43466
C        -12.41413      -11.40738       -7.43778
C        -11.27321      -12.77907       -5.68229
C        -10.75130      -15.12080       -3.71504
C        -11.74583      -15.22691       -2.81628
C        -12.43936      -16.45767       -2.54286
S        -12.09785      -17.90159       -3.44373
C        -13.26300      -18.85921       -2.62510
C        -13.88218      -18.11204       -1.64570
C        -13.42046      -16.73605       -1.60772
C        -13.91925      -15.78648       -0.70128
C        -14.91630      -16.29664        0.17051
C        -15.48466      -15.37571        1.12809
N        -15.92270      -14.61134        1.88272
C        -15.36528      -17.66767        0.12841
C        -16.38178      -18.11423        1.04599
N        -17.19810      -18.48786        1.77555
C        -14.85822      -18.62912       -0.78425
C        -13.38672      -20.21967       -3.01941
C        -14.20468      -20.57421       -4.01867
H          6.86678       -6.52102       -0.31989
H          8.01889       -8.05831       -2.22224
H          3.16602       -9.51177       -3.27145
H          1.76049       -8.74273       -1.42405
H          1.80347       -5.81763       -0.43456
H          0.43494       -5.19964        1.51460
H         -1.38027       -3.02570        2.88609
H         -1.19750       -5.53227        4.68165
H         -0.97784       -3.75710        5.17197
H         -4.17211       -3.76157        2.66818
H         -4.15200       -5.31815        3.55661
H         -5.17328       -5.10729        2.13107
H         -4.44041       -6.43419        0.36940
H         -4.03302       -7.47751       -2.64007
H         -3.45561       -9.79920       -0.66700
H         -4.99107       -9.20880       -4.08036
H         -7.30467      -12.07474       -0.96177
H         -8.57981       -9.76978       -5.14825
H        -11.06954       -8.47950       -6.54512
H         -9.15996       -9.76066       -8.60838
H         -9.90639       -8.06257       -8.64858
H        -12.02172      -11.14565       -8.42494
H        -13.10989      -10.63442       -7.09660
H        -12.98052      -12.33794       -7.55453
H        -12.00222      -13.56692       -5.82652
H        -10.38963      -15.95599       -4.30469
H        -12.03083      -14.34887       -2.24537
H        -13.59330      -14.75425       -0.64807
H        -15.20400      -19.65798       -0.80219
H        -12.75348      -20.95929       -2.53771
H        -14.82582      -19.85790       -4.54864
H        -14.24755      -21.60751       -4.35026
