146

C         -9.95228       -1.74111       -3.47783
O         -9.35127       -0.87411       -4.07101
C        -10.54790       -2.94280       -4.07372
C        -10.95028       -3.84333       -3.07112
C        -11.62910       -4.99648       -3.44301
C        -11.86512       -5.22732       -4.80536
C        -11.44035       -4.32799       -5.78437
C        -10.77282       -3.16999       -5.41934
F        -10.39915       -2.28475       -6.35051
F        -11.70204       -4.57487       -7.07528
F        -12.53453       -6.33148       -5.16239
C        -10.56629       -3.27236       -1.74652
C        -10.40872       -3.94990       -0.58728
C        -10.67853       -5.34433       -0.46615
N        -10.90183       -6.47980       -0.39506
C         -9.89609       -3.34648        0.60665
N         -9.48173       -2.83948        1.55680
C        -10.21228       -1.85655       -2.00169
C        -10.28729       -0.80868       -1.16246
C        -10.08435        0.53846       -1.56418
C         -8.99543        1.34483       -1.34278
C         -9.12159        2.69199       -1.86260
C         -8.20469        3.77981       -1.90162
C         -6.80231        3.57374       -1.43885
C         -5.98475        4.38469       -0.66229
C         -4.71978        3.80039       -0.36026
C         -4.60980        2.52128       -0.85396
S         -5.89940        2.17741       -1.92159
C         -3.55763        1.49946       -0.57824
Cl        -3.54660        4.60785        0.58856
C         -8.62858        5.05439       -2.34992
C         -9.95026        5.27587       -2.76279
C        -10.86005        4.18097       -2.75101
C        -10.42341        2.90046       -2.33983
S        -11.30787        1.40494       -2.35548
C        -12.30553        4.39354       -3.06463
C        -13.42777        3.87931       -2.42336
C        -14.66062        4.37207       -2.93640
C        -14.46545        5.33269       -3.90009
S        -12.83296        5.34461       -4.40740
C        -15.46773        6.25377       -4.51003
Cl       -16.17443        3.86651       -2.32076
C        -10.12272        6.66134       -3.14140
C         -9.00431        7.45849       -3.06124
S         -7.70354        6.51771       -2.49059
C         -8.87970        8.85600       -3.46737
S         -7.34525        9.45570       -3.98758
C         -7.95200       10.98166       -4.52258
C         -9.30682       11.04965       -4.24746
C         -9.83089        9.85774       -3.61266
C        -11.18653        9.74090       -3.25229
C        -12.02718       10.83044       -3.64064
S        -13.74615       10.50652       -3.14005
C        -14.84667       11.18847       -4.42941
C        -14.56238       10.73854       -5.85088
C        -11.48769       12.01548       -4.26775
S        -12.50725       13.39678       -4.82641
C        -12.09528       14.70913       -3.63699
C        -12.32589       14.31733       -2.19050
C        -10.10242       12.16067       -4.57658
C         -7.08855       11.88967       -5.22022
C         -5.78483       12.02700       -4.91820
C         -4.83076       12.90200       -5.65252
C         -5.13386       14.34074       -5.44744
C         -5.99241       15.03369       -6.31043
C         -6.47292       16.30017       -5.96940
C         -6.14093       16.87253       -4.74274
C         -5.33009       16.18476       -3.86334
C         -4.82790       14.92890       -4.21113
F         -4.10157       14.25300       -3.30639
F         -5.05931       16.70442       -2.66406
F         -6.62261       18.07789       -4.42115
F         -7.28180       16.95600       -6.82228
F         -6.38059       14.46828       -7.46053
C         -3.75064       12.37211       -6.32342
C         -3.62115       10.87455       -6.11041
C         -4.22467        9.94506       -6.96452
C         -4.28321        8.58932       -6.63557
C         -3.72095        8.12827       -5.45854
C         -3.12217        9.01796       -4.58415
C         -3.09531       10.37176       -4.89971
F         -2.66779       11.23611       -3.96421
F         -2.62838        8.59014       -3.41265
F         -3.80932        6.82803       -5.13005
F         -4.92037        7.73222       -7.45052
F         -4.85710       10.37066       -8.07281
C         -2.66950       13.14196       -7.07786
C         -1.34489       13.15636       -6.73187
C         -0.41141       13.93891       -7.54718
C          0.79843       14.46486       -7.21137
C          1.30484       14.41590       -5.88859
N          1.68894       14.42387       -4.79278
C          1.61127       15.17771       -8.14147
N          2.28473       15.76241       -8.88750
S         -1.07003       14.21120       -9.13834
C         -2.96041       13.80376       -8.48900
C         -3.47672       15.27771       -8.47133
C         -4.00028       15.92485       -9.60994
C         -4.42825       17.25807       -9.58612
C         -4.25673       18.02437       -8.44366
C         -3.62159       17.46586       -7.34318
C         -3.23483       16.11799       -7.35933
C         -3.39529       12.76988       -9.58001
C         -2.60174       11.61169       -9.79892
C         -2.74135       10.81390      -10.93913
C         -3.69054       11.13973      -11.89492
C         -4.56025       12.19766      -11.65535
C         -4.45066       12.96552      -10.48393
C         -0.75468       12.26380       -5.78797
N         -0.17590       11.48108       -5.15920
H        -12.01557       -5.72371       -2.73635
H        -10.57281       -0.92706       -0.12121
H         -8.11902        0.96680       -0.83268
H         -6.28077        5.35584       -0.28799
H         -2.55559        1.93610       -0.62743
H         -3.59368        0.65912       -1.27861
H         -3.69978        1.09420        0.43133
H        -13.38041        3.19096       -1.58969
H        -16.17256        5.70381       -5.13986
H        -15.00012        7.03859       -5.11340
H        -16.03792        6.75729       -3.71923
H        -11.05040        7.05029       -3.52287
H        -11.59401        8.89223       -2.71772
H        -14.88831       12.27500       -4.34221
H        -15.85758       10.85140       -4.16975
H        -13.52141       10.87923       -6.14981
H        -15.18095       11.32259       -6.54285
H        -14.82087        9.68493       -5.99239
H        -12.74655       15.55585       -3.88124
H        -11.06423       15.03768       -3.79422
H        -13.32590       13.90071       -2.03229
H        -12.23194       15.20322       -1.55331
H        -11.58210       13.59126       -1.84908
H         -9.71644       13.05020       -5.05905
H         -7.52376       12.45639       -6.03909
H         -5.36567       11.51318       -4.05252
H         -4.04211       15.43584      -10.57879
H         -4.86500       17.70255      -10.47825
H         -4.58061       19.06198       -8.42914
H         -3.42725       18.08220       -6.46832
H         -2.72124       15.74794       -6.47620
H         -1.80022       11.34388       -9.11398
H         -2.07742        9.96748      -11.09763
H         -3.75961       10.56543      -12.81560
H         -5.31633       12.44457      -12.39837
H         -5.18920       13.74835      -10.34394
