115

C         -1.62669        3.76036        1.47601
C         -0.98722        3.81653        2.67060
C          0.43259        3.97478        2.77345
N          1.57812        4.09740        2.85182
C         -1.69695        3.78962        3.90110
N         -2.28953        3.75535        4.89601
C         -1.01908        3.88961        0.12209
C         -2.02859        4.25323       -0.77344
C         -1.86390        4.36931       -2.14633
C         -0.58629        4.08663       -2.67157
C          0.44959        3.74697       -1.78861
C          0.25626        3.64031       -0.38161
S          1.92237        3.46826       -2.64788
C          1.18727        3.74431       -4.16076
C         -0.14633        4.05111       -4.03664
C         -3.31562        4.35990       -0.07999
O         -4.30857        4.90757       -0.50491
C         -3.09612        3.70547        1.25191
C         -4.04558        2.99131        1.88152
C         -5.34264        2.79048        1.32215
S         -6.73200        3.63748        1.90912
C         -7.81638        2.91044        0.76811
C         -7.11707        2.06117       -0.05286
C         -5.77240        1.98085        0.31720
C         -5.11655        1.02806       -0.51454
C         -5.95237        0.49313       -1.51057
C         -5.63506       -0.49064       -2.53281
O         -6.20612       -0.62786       -3.60807
O         -4.64820       -1.31978       -2.07943
C         -4.53312       -2.53086       -2.82987
S         -7.61327        1.07429       -1.48278
C         -9.25963        3.21845        0.72275
C        -10.22473        2.21217        0.49504
C        -11.57856        2.55126        0.39398
C        -11.99599        3.88934        0.54071
C        -11.07143        4.88592        0.80825
C         -9.71104        4.54753        0.88717
C        -13.41769        3.97292        0.29066
C        -13.90929        2.69292       -0.02930
C        -12.80680        1.63187        0.07917
C        -12.50212        0.88209       -1.25197
C        -13.60006        0.07746       -1.93865
C        -13.02397        0.70859        1.31406
C        -14.31841       -0.09516        1.41484
C        -15.23926        2.52180       -0.39295
C        -16.09065        3.63284       -0.52448
C        -15.59063        4.89794       -0.13868
C        -14.26353        5.07075        0.28208
C        -17.46918        3.44638       -1.03582
C        -17.81140        2.63732       -2.13372
O        -16.93469        1.94043       -2.92939
C        -15.91334        2.71594       -3.55362
C        -19.15912        2.35917       -2.42035
C        -20.21339        2.82469       -1.61558
C        -19.88607        3.71390       -0.57846
C        -18.53651        4.03132       -0.32678
O        -20.91637        4.23997        0.16498
C        -20.55850        4.70446        1.46785
C        -21.61270        2.41763       -1.92228
C        -22.02076        1.21923       -2.38186
C        -21.28053       -0.01333       -2.66034
C        -20.54212       -0.72729       -1.77635
C        -19.96458       -1.98666       -2.10486
N        -19.49165       -3.01064       -2.38904
C        -20.45695       -0.34338       -0.40473
N        -20.44176       -0.09082        0.72751
C        -21.84487       -0.56334       -3.91218
C        -23.14195       -0.05742       -4.04130
C        -23.35445        1.04471       -3.06390
O        -24.36510        1.69646       -2.91478
C        -24.03012       -0.51546       -5.00607
C        -23.56135       -1.49104       -5.92499
C        -22.21688       -1.89033       -5.86405
C        -21.33110       -1.43033       -4.86392
S        -21.82799       -2.99343       -7.13246
C        -23.43628       -3.03595       -7.68906
C        -24.25328       -2.19371       -6.97121
H         -2.70583        4.61409       -2.78792
H          1.09025        3.32797        0.23712
H          1.76287        3.66540       -5.07323
H         -0.78998        4.24318       -4.88716
H         -3.82358        2.42358        2.77920
H         -4.07468        0.74249       -0.42325
H         -3.60826       -3.03224       -2.53340
H         -4.49688       -2.34904       -3.90874
H         -5.37511       -3.18557       -2.58123
H         -9.92745        1.17559        0.37890
H        -11.37666        5.92161        0.92450
H         -8.99411        5.35141        1.04868
H        -11.66496        0.19373       -1.07737
H        -12.14078        1.60456       -1.99780
H        -14.11398       -0.61847       -1.28269
H        -13.16357       -0.52645       -2.74203
H        -14.34427        0.72349       -2.40417
H        -12.97809        1.31935        2.22756
H        -12.18478        0.00537        1.38584
H        -15.20312        0.54466        1.45692
H        -14.31360       -0.68290        2.33867
H        -14.44081       -0.81269        0.60695
H        -15.61524        1.53021       -0.62591
H        -16.23194        5.77698       -0.18150
H        -13.90854        6.05637        0.56835
H        -15.47198        2.09385       -4.33938
H        -15.09864        2.95277       -2.87019
H        -16.30362        3.62901       -4.00945
H        -19.36350        1.74830       -3.29600
H        -18.28445        4.71223        0.48056
H        -21.47626        4.89876        2.02845
H        -20.00339        5.64810        1.41078
H        -19.98498        3.94753        2.01602
H        -22.34044        3.22661       -1.84066
H        -25.04871       -0.14051       -5.04997
H        -20.30036       -1.77033       -4.85398
H        -23.70546       -3.67340       -8.52053
H        -25.31055       -2.08561       -7.18128
