95

C        -10.77924       -0.65713        1.10541
C        -11.41454       -1.01769       -0.09074
C        -11.41314       -2.34749       -0.54529
C        -10.83775       -3.36152        0.21553
C        -10.23884       -3.01053        1.41064
C        -10.15405       -1.65359        1.84188
C         -9.14517       -1.59686        2.96130
C         -9.02143       -0.65205        3.92826
C         -9.90471        0.46867        3.99823
N        -10.63821        1.38165        4.09010
C         -8.04653       -0.78564        4.95554
N         -7.23760       -0.89796        5.78651
C         -8.40525       -2.91408        2.85040
C         -9.45445       -3.83682        2.36019
C         -9.99168       -4.90561        2.99278
C         -9.46985       -5.36412        4.26105
N         -9.08356       -5.73299        5.27701
C        -11.18543       -5.56257        2.49919
N        -12.11384       -6.12278        2.08971
C         -7.05561       -2.97577        2.66922
C         -6.27986       -3.99695        1.98222
C         -5.12359       -3.97733        1.18386
O         -4.24582       -2.95258        1.04880
C         -4.78648       -1.66273        0.90487
C         -4.86828       -5.24218        0.50381
O         -3.96582       -5.47107       -0.49278
C         -2.71860       -4.79742       -0.36375
C         -5.72263       -6.25963        0.92312
S         -6.44863       -5.65454        2.37107
C         -5.89307       -7.64640        0.41652
C         -6.78741       -8.68825        0.68717
O         -7.61763       -8.79774        1.75217
C         -8.45660       -7.73241        2.09269
C         -6.62239       -9.85084       -0.18584
O         -7.25530      -11.06142       -0.08376
C         -8.39156      -11.09097        0.77057
C         -5.68278       -9.63472       -1.19103
S         -4.65086       -8.37075       -0.58881
C         -5.34635      -10.39645       -2.41377
C         -4.68598      -10.04488       -3.60274
O         -4.29197       -8.77257       -3.92536
C         -5.28176       -7.75729       -3.73387
C         -4.33128      -11.23393       -4.42036
O         -3.63703      -11.17524       -5.61138
C         -3.93194      -12.20262       -6.57409
C         -4.61960      -12.40891       -3.71485
S         -5.91589      -12.01507       -2.63860
C         -4.18893      -13.76136       -3.89956
C         -4.01624      -14.75847       -3.01319
C         -3.88885      -16.16136       -3.49856
C         -2.90537      -16.65995       -4.28257
C         -1.85155      -15.85489       -4.77489
N         -0.97448      -15.19900       -5.20596
C         -2.88114      -18.03611       -4.66277
N         -2.86657      -19.13321       -4.98237
C         -5.00965      -16.87187       -2.81251
C         -5.45928      -16.04343       -1.73460
C         -6.63729      -16.33158       -1.07292
C         -7.33677      -17.48564       -1.43797
C         -6.86976      -18.32641       -2.46129
C         -5.70744      -18.01645       -3.16895
C         -4.56159      -14.85719       -1.65802
C         -4.12517      -14.22284       -0.55291
C         -4.65169      -14.52516        0.73526
N         -5.09533      -14.79747        1.76634
C         -2.98884      -13.35081       -0.60615
N         -2.03443      -12.70396       -0.64574
H        -10.74185        0.39375        1.37890
H        -11.87751       -0.24975       -0.70920
H        -11.84238       -2.58642       -1.51701
H        -10.80830       -4.37939       -0.15808
H         -6.50655       -2.07356        2.90895
H         -5.67219       -1.65829        0.26430
H         -4.01866       -1.03763        0.44068
H         -4.98003       -1.23895        1.88943
H         -2.04662       -5.18042       -1.13837
H         -2.24983       -4.98633        0.60878
H         -2.81973       -3.72785       -0.56122
H         -9.48583       -8.06726        2.21924
H         -8.47463       -6.92379        1.35446
H         -8.13111       -7.42090        3.08623
H         -9.16107      -10.41556        0.37831
H         -8.14378      -10.87401        1.81442
H         -8.80165      -12.10296        0.79312
H         -6.16498       -7.94070       -4.34802
H         -4.84270       -6.78531       -3.97345
H         -5.63834       -7.64006       -2.71655
H         -3.50981      -13.16591       -6.29781
H         -3.41832      -12.00734       -7.52019
H         -5.00752      -12.28765       -6.77566
H         -4.08241      -14.09332       -4.91542
H         -7.04737      -15.66681       -0.31946
H         -8.27978      -17.71828       -0.94364
H         -7.44431      -19.20839       -2.73211
H         -5.42191      -18.64540       -4.00516
