122

C         -0.81755      -12.84620       -2.60083
S         -1.28085      -11.79760       -1.34096
C         -1.31825      -12.44664       -3.82110
C         -1.07024      -13.16715       -5.07240
O         -0.40245      -14.19020       -5.15311
C         -1.71640      -12.52064       -6.20418
C         -1.70246      -12.91659       -7.52473
N         -2.45938      -12.02946       -8.24534
C         -2.69929      -12.07722       -9.68084
C         -2.73779      -13.47869      -10.27570
C         -2.93701      -11.04940       -7.40387
C         -2.49370      -11.32351       -6.12260
C         -2.73556      -10.57775       -4.88499
O         -3.36833       -9.53005       -4.83884
C         -2.10974      -11.22735       -3.71411
C         -2.19274      -10.78510       -2.39813
C         -2.85703       -9.65472       -1.84127
C         -4.11561       -9.75951       -1.38447
C         -4.86329       -8.64844       -0.88403
C         -4.46812       -7.70272        0.19556
N         -5.29887       -6.72620        0.45488
C         -6.31592       -6.96098       -0.41435
C         -6.05196       -8.14236       -1.21342
C         -7.19314       -8.35067       -2.15673
S         -7.45500       -9.61160       -3.20582
C         -8.05946       -7.15986       -1.86709
C         -7.45897       -6.40894       -0.78985
N         -8.21992       -5.32172       -0.47029
C         -9.20348       -5.41030       -1.31609
C         -9.18172       -6.56087       -2.26567
C        -10.17532       -6.80338       -3.27288
C         -9.79860       -6.85145       -4.57603
C        -10.78345       -7.06214       -5.62488
C        -10.66502       -7.18068       -6.97566
C         -9.45142       -7.16497       -7.89354
C         -9.14510       -5.72940       -8.39650
N         -8.84223       -4.76309       -7.33591
C         -8.15818       -7.81934       -7.33979
N         -8.31424       -9.25026       -7.06244
C        -12.04836       -7.30900       -7.46395
C        -12.55435       -7.47607       -8.69743
C        -14.06111       -7.50809       -8.95940
C        -14.91640       -7.47216       -7.69986
C        -14.40391       -7.32812       -6.46626
C        -12.97439       -7.23383       -6.33441
C        -12.21206       -7.10763       -5.24010
C        -12.58486       -7.04016       -3.84967
C        -11.61000       -6.91194       -2.92930
C        -14.46809       -6.37585       -9.87476
C        -14.30452       -5.06716       -9.60828
C        -14.69034       -4.04727      -10.52468
C        -15.75215       -3.02564      -10.33693
N        -16.00140       -2.25316      -11.35874
C        -15.13206       -2.70919      -12.30130
C        -14.32126       -3.78045      -11.77658
C        -13.39605       -4.27456      -12.84651
S        -12.18234       -5.40345      -12.74408
C        -13.84343       -3.47592      -14.03094
C        -14.86478       -2.53864      -13.59147
N        -15.32768       -1.80073      -14.63359
C        -14.63748       -2.26181      -15.63925
C        -13.67163       -3.34746      -15.34534
C        -12.85767       -4.02703      -16.27612
S        -13.43168       -5.45204      -17.03193
C        -11.62435       -3.67434      -16.80348
C        -10.89928       -2.46254      -16.40883
O        -11.37783       -1.57264      -15.71552
C         -9.58060       -2.39190      -17.00063
C         -8.58383       -1.48488      -16.72616
N         -7.61806       -1.63274      -17.68724
C         -6.55972       -0.66430      -17.92405
C         -7.13758        0.69743      -18.28568
C         -7.89897       -2.72966      -18.46212
C         -9.11014       -3.24572      -18.03563
C         -9.85966       -4.37865      -18.56552
O         -9.45964       -5.02433      -19.52510
C        -11.13484       -4.60462      -17.83245
C        -12.03532       -5.64510      -18.03951
C        -12.03578       -6.77106      -18.91928
C        -10.93133       -7.46744      -19.21267
H         -0.19518      -13.71003       -2.39997
H         -1.21839      -13.76741       -7.98706
H         -1.90658      -11.48476      -10.15068
H         -3.65792      -11.57985       -9.86769
H         -1.76342      -13.97256      -10.19717
H         -2.99704      -13.43605      -11.33802
H         -3.47655      -14.10527       -9.76512
H         -3.55377      -10.24019       -7.77774
H         -2.33135       -8.70280       -1.85431
H         -4.64248      -10.71056       -1.42835
H         -3.51704       -7.85332        0.72796
H        -10.03053       -4.68544       -1.37495
H         -8.76740       -6.68186       -4.85082
H         -9.70282       -7.75316       -8.78783
H         -9.99094       -5.35327       -8.98390
H         -8.28457       -5.76204       -9.07582
H         -9.67104       -4.65135       -6.74931
H         -8.68355       -3.84799       -7.75823
H         -7.79820       -7.31248       -6.44415
H         -7.34850       -7.71188       -8.07127
H         -9.20410       -9.41354       -6.59041
H         -7.60157       -9.53164       -6.38499
H        -11.90764       -7.58757       -9.56230
H        -14.28367       -8.45460       -9.47066
H        -15.99332       -7.55287       -7.82546
H        -15.04024       -7.28474       -5.59093
H        -13.62733       -7.10937       -3.56364
H        -11.87596       -6.87610       -1.87627
H        -14.94016       -6.68321      -10.80703
H        -13.86675       -4.74589       -8.66542
H        -16.29576       -2.97530       -9.38000
H        -14.74818       -1.90456      -16.67271
H         -8.53941       -0.68933      -15.99227
H         -5.92837       -1.03879      -18.73622
H         -5.95779       -0.60915      -17.01097
H         -7.79089        0.62500      -19.16248
H         -6.34030        1.41235      -18.50217
H         -7.73907        1.10475      -17.46465
H         -7.25541       -3.02749      -19.28236
H        -12.98098       -7.09721      -19.35044
H         -9.95455       -7.23327      -18.80317
H        -10.96893       -8.30197      -19.90538
