96

C          1.04892        0.48180        0.93344
O          2.02719        0.85043        1.55659
C         -0.34071        0.58059        1.26219
C         -1.17167        0.39878        0.18792
C         -2.53081        0.45452        0.55505
C         -2.65370        0.66779        1.92208
S         -1.12204        0.82870        2.71386
C         -0.36753        0.19606       -0.99674
C         -0.74089        0.42278       -2.27412
C         -2.06265        0.83979       -2.59922
N         -3.14091        1.18618       -2.85355
C          0.18292        0.36196       -3.35491
N          0.95017        0.30613       -4.22071
C          1.01227       -0.09467       -0.48005
C          1.94331       -0.89726       -1.02672
C          3.12243       -1.35608       -0.36036
C          3.34261       -1.70114        0.97925
C          4.64457       -2.19475        1.19410
C          5.33837       -2.27634        0.01149
S          4.55223       -1.66485       -1.31553
C          6.56328       -2.92475        0.25234
C          6.66152       -3.23288        1.59111
C          5.47895       -2.71306        2.28204
C          5.25744       -2.63906        3.61023
C          4.07584       -2.05033        4.13617
N          3.10240       -1.58913        4.56744
C          6.22475       -3.09232        4.55338
N          7.02097       -3.45707        5.31358
C          7.82727       -3.98572        1.86355
C          8.56471       -4.20239        0.69620
S          7.81111       -3.46524       -0.68817
C          9.78114       -4.96813        0.54836
C         10.16440       -6.09231        1.28036
C         11.38863       -6.62453        0.80542
C         11.92615       -5.81489       -0.16566
S         10.98525       -4.53439       -0.62724
C         13.20604       -6.29016       -0.49122
C         13.47129       -7.41157        0.25946
C         12.29827       -7.76987        1.04889
C         11.96628       -8.93208        1.67424
C         10.47799       -9.01675        1.97128
N          9.24333       -9.08699        2.21770
C         12.81203      -10.19500        1.66277
N         13.51365      -11.24270        1.65326
C         14.79474       -7.82864        0.06893
C         15.49723       -7.01480       -0.83661
S         14.43408       -5.77304       -1.47495
C         16.86354       -6.97862       -1.28344
C         17.84213       -7.81394       -0.90199
C         19.24252       -7.66875       -1.25420
C         20.06395       -8.36383       -0.44447
C         19.34819       -9.05601        0.61306
S         17.66535       -9.17154        0.16448
C         19.80685       -9.47045        1.80627
C         21.17589       -9.45802        2.27099
C         21.32116       -9.86558        3.54149
C         20.07551      -10.20864        4.19541
S         18.73353       -9.99779        3.10554
C         19.96724      -10.59768        5.47693
C         18.74361      -10.87567        6.21685
C         17.80399      -11.79982        5.95168
C         16.47000      -11.99547        6.56665
C         16.12153      -11.78948        7.86103
C         14.83853      -12.13127        8.38748
N         13.80160      -12.39765        8.81652
C         17.04331      -11.28543        8.82203
N         17.79729      -10.86737        9.60278
C         15.62478      -12.65096        5.52287
C         16.45950      -13.08595        4.49042
C         17.85728      -12.72594        4.76921
O         18.82853      -13.15758        4.18437
C         16.00905      -13.73176        3.34570
C         14.62112      -13.96883        3.22970
C         13.77281      -13.52425        4.25608
C         14.25328      -12.84867        5.40655
S         12.12219      -13.90409        3.90836
C         12.53248      -14.62797        2.43992
C         13.87543      -14.60143        2.17578
Br        11.26856      -15.38830        1.28527
H         -3.39066        0.33678       -0.09396
H         -3.56349        0.74172        2.50355
H          1.78160       -1.32185       -2.01657
H          2.57680       -1.61095        1.73869
H          8.12872       -4.37413        2.82980
H          9.55367       -6.49319        2.08014
H         15.22083       -8.65460        0.61320
H         17.14081       -6.14856       -1.93425
H         19.58097       -7.03203       -2.06023
H         21.14040       -8.35297       -0.52334
H         22.00358       -9.16595        1.64135
H         22.27522       -9.92988        4.04437
H         20.86903      -10.64402        6.08561
H         18.62731      -10.19097        7.05348
H         16.70348      -14.02175        2.56224
H         13.53762      -12.50358        6.14341
H         14.32280      -14.99930        1.27324
