74

C         -0.61476       -8.48585       -0.60907
S         -1.81813       -7.30283       -0.85120
C         -0.68569       -6.02742       -0.72631
O         -1.12800       -4.77983       -0.85478
C          0.59885       -6.48992       -0.50018
C          0.62982       -7.92241       -0.43827
C          1.81316       -5.60321       -0.34324
C          1.80882       -4.20981       -0.38406
C          3.10837       -3.69041       -0.21031
C          4.03404       -4.69521       -0.05409
S          3.41085       -6.23250       -0.08558
C          5.30934       -4.11780        0.10281
C          5.19400       -2.74911        0.05668
C          3.78624       -2.39480       -0.14919
C          3.23979       -1.16875       -0.25705
C          1.84232       -0.98132       -0.45426
N          0.70565       -0.81618       -0.61341
C          4.02854        0.00922       -0.17583
N          4.67199        0.97320       -0.10639
C          6.44951       -2.12141        0.22484
C          7.49004       -3.04956        0.40760
S          6.84897       -4.68823        0.29796
C          8.90256       -2.82402        0.64027
C          9.59916       -3.70829        1.38480
C         10.99549       -3.54673        1.68017
C         11.79683       -2.44777        1.13521
C         11.29886       -1.46934        0.38166
S          9.61289       -1.36278       -0.05529
C         13.11964       -2.65954        1.57932
C         13.16692       -3.79281        2.35470
C         14.44662       -4.09128        2.84503
C         15.34768       -3.13268        2.40343
S         14.60339       -1.91196        1.41305
C         11.83199       -4.32922        2.42028
C         11.50316       -5.54795        3.10992
C         10.55195       -5.64978        4.05182
C         10.24030       -6.90005        4.65796
C         10.79144       -8.16423        4.43704
C         10.14109       -9.15239        5.19245
C          9.15123       -8.61893        5.98245
S          8.96589       -6.97487        5.85049
C          8.53405       -9.66538        6.69558
C          9.13298      -10.85629        6.35066
C         10.19201      -10.59830        5.37610
C         11.02015      -11.47684        4.77575
C         12.00608      -11.05918        3.83584
N         12.80729      -10.71148        3.07421
C         10.94681      -12.86667        5.04407
N         10.88631      -14.00478        5.26542
C          8.54510      -11.94525        7.02699
C          7.51588      -11.52367        7.87541
S          7.30272       -9.79466        7.79540
C          6.68366      -12.33173        8.74476
S          6.87922      -14.03746        8.85803
C          5.63560      -14.19016       10.00756
O          5.32431      -15.38164       10.50064
C          5.06443      -12.97983       10.30819
C          5.66347      -11.91012        9.58177
H         -0.87239       -9.53617       -0.60385
H         -2.08401       -4.86427       -1.01571
H          1.51748       -8.52120       -0.27431
H          0.91262       -3.62317       -0.53259
H          6.62443       -1.05159        0.23691
H          9.13134       -4.59571        1.79694
H         11.94592       -0.67919        0.01418
H         14.71459       -4.93112        3.47362
H         16.40833       -3.07761        2.60755
H         12.10750       -6.39944        2.80915
H          9.98348       -4.77047        4.35052
H         11.59910       -8.33584        3.73862
H          8.83495      -12.98398        6.92408
H          5.93495      -16.00061       10.06343
H          4.25535      -12.86609       11.01842
H          5.35054      -10.87797        9.68440
