101

C         -3.92849       -2.23224       -3.60191
C         -5.01791       -1.43573       -3.93305
C         -4.78828       -0.10020       -3.54125
C         -3.55802        0.04922       -2.93579
S         -2.65812       -1.34496       -2.82719
C         -3.40315        1.39559       -2.54424
C         -4.53256        2.09665       -2.89974
C         -5.47263        1.19310       -3.56574
C         -6.68042        1.48385       -4.08676
C         -7.21883        2.79837       -4.03575
N         -7.65579        3.87247       -3.99150
C         -7.47876        0.49416       -4.72260
N         -8.12851       -0.31415       -5.24383
C         -4.44690        3.45046       -2.50794
C         -3.23757        3.72285       -1.86041
S         -2.24068        2.29306       -1.77417
C         -2.78814        4.98303       -1.29246
C         -1.57994        5.24717       -0.63984
C         -1.51014        6.58567       -0.19751
C         -2.64345        7.28957       -0.53220
S         -3.78759        6.41177       -1.35391
C         -2.51727        8.61188       -0.05362
C         -1.30494        8.74456        0.58458
C         -0.59139        7.46541        0.52649
C          0.62318        7.16304        1.02468
C          1.40886        8.12952        1.70806
N          2.04685        8.92191        2.26651
C          1.18384        5.86249        0.89665
N          1.63795        4.79924        0.79301
C         -1.13048       10.05045        1.10008
C         -2.23152       10.86868        0.81878
S         -3.45238        9.98152       -0.06219
C         -2.46001       12.29002        1.17673
C         -1.88596       12.83640        2.34911
C         -2.07113       14.18381        2.71143
C         -2.83269       14.99845        1.89141
C         -3.41275       14.46969        0.72194
C         -3.23417       13.13563        0.36165
C         -4.20007       15.55604       -0.01686
C         -3.59336       15.82075       -1.39970
C         -5.68387       15.18854       -0.12570
C         -3.99731       16.76032        0.90733
C         -4.50028       18.05297        0.76671
C         -4.19961       19.02474        1.73730
C         -3.36789       18.65203        2.82010
C         -2.86169       17.34705        2.95799
C         -3.18674       16.40083        2.00258
C         -4.72198       20.40903        1.64201
C         -4.14782       21.59862        2.10460
C         -4.96983       22.71526        1.83247
C         -6.12435       22.34710        1.17857
S         -6.27217       20.71810        0.89735
C         -6.88707       23.50554        0.91071
C         -6.21394       24.60188        1.39834
C         -4.96705       24.16721        2.02260
C         -4.03975       24.93001        2.63502
C         -4.18277       26.34047        2.74905
N         -4.30197       27.49010        2.84149
C         -2.87319       24.36136        3.20861
N         -1.92118       23.89211        3.67956
C         -6.90764       25.80066        1.13965
C         -8.09451       25.56495        0.44246
S         -8.32682       23.85810        0.16304
C         -9.04540       26.54919       -0.04169
C        -10.23880       26.32502       -0.73257
C        -10.86626       27.53810       -1.08615
C        -10.15100       28.62747       -0.64474
S         -8.76235       28.25713        0.18154
C        -10.81729       29.80461       -1.04434
C        -11.95703       29.45650       -1.73898
C        -12.05506       27.99791       -1.80306
C        -13.01015       27.25230       -2.39140
C        -14.11376       27.84617       -3.06117
N        -15.01423       28.33280       -3.60861
C        -12.96404       25.83148       -2.37796
N        -12.92100       24.67180       -2.36601
C        -12.66723       30.59297       -2.17838
C        -12.01198       31.75481       -1.78899
S        -10.55897       31.44094       -0.89914
H         -3.80873       -3.29439       -3.76986
H         -5.90028       -1.83487       -4.41815
H         -5.21048        4.20241       -2.66435
H         -0.81552        4.49346       -0.49617
H         -0.26385       10.41027        1.64126
H         -1.28857       12.21066        3.00992
H         -1.62144       14.56858        3.62135
H         -3.69012       12.77211       -0.55416
H         -3.68391       14.94289       -2.04977
H         -2.52678       16.06874       -1.33240
H         -4.09261       16.65730       -1.90164
H         -5.82906       14.28973       -0.73593
H         -6.26219       15.99737       -0.58701
H         -6.12499       14.99088        0.85894
H         -5.11515       18.29036       -0.09623
H         -3.11170       19.37876        3.58893
H         -2.23155       17.09576        3.80505
H         -3.18241       21.62406        2.59464
H         -6.57718       26.79483        1.41393
H        -10.60023       25.33252       -0.97101
H        -13.59040       30.61072       -2.74440
H        -12.30719       32.77789       -1.98091
