78

C         -1.02032       -0.44369       -2.88191
O          0.23607        0.05940       -2.94209
C          0.16284        1.44065       -2.96912
C         -1.18862        1.77653       -2.90165
C         -1.93487        0.57554       -2.84780
C         -3.34686        0.40949       -2.76641
N         -4.49535        0.27617       -2.69839
C         -1.70439        3.10559       -2.86663
N         -2.09569        4.19672       -2.84464
C          1.31905        2.26513       -3.04312
C          2.50755        1.85666       -2.55006
C          3.48449        2.93829       -2.73085
C          2.74753        4.02206       -3.40052
C          1.48336        3.60371       -3.58233
C          3.20562        5.28545       -3.84157
N          3.53819        6.33869       -4.19660
C          4.77762        2.90036       -2.34428
C          5.73199        4.00148       -2.45610
C          6.93569        3.60122       -1.98989
C          6.79381        2.21449       -1.56539
C          5.53006        1.79640       -1.74158
C          5.09306        0.49726       -1.40041
N          4.74654       -0.56945       -1.10353
C          8.08779        4.46227       -1.91282
N          9.02266        4.47565       -0.86643
C          9.06036        3.65430        0.32602
C          7.90062        3.89129        1.27779
C         10.02605        5.44143       -1.08460
O         10.98692        5.72580       -0.39946
C          9.64592        6.02713       -2.37810
C          8.44287        5.38457       -2.81821
C          8.06913        5.98189       -4.11546
O          7.10873        5.69657       -4.79997
N          9.09535        6.92567       -4.33648
C          9.12132        7.77534       -5.51418
C         10.32728        7.53798       -6.41315
C         10.02162        6.92387       -3.29132
C         11.16892        7.78557       -3.24682
C         12.33203        7.42283       -2.68718
C         13.44914        8.29044       -2.64153
S         14.49841        8.19081       -1.29856
C         15.57706        9.38984       -1.90936
C         15.09680        9.87797       -3.11626
C         13.88417        9.24881       -3.53147
C         15.75320       10.88487       -3.89730
N         16.26734       11.69572       -4.54799
C         16.74514        9.76591       -1.17146
C         17.39277        8.90144       -0.37195
C         18.55156        9.28507        0.36091
O         19.09825       10.55218        0.31412
C         20.18640       10.58385        1.12120
C         20.37534        9.35849        1.70867
C         19.33740        8.52838        1.22917
C         19.11460        7.15858        1.55864
N         18.92315        6.04026        1.81735
C         21.42412        9.03702        2.61439
N         22.28063        8.77735        3.35191
H         -1.09084       -1.52409       -2.86564
H          2.66782        0.90646       -2.06705
H          0.70307        4.16537       -4.07659
H          5.52023        4.99357       -2.82158
H          7.59910        1.61744       -1.16540
H          9.98595        3.87389        0.87270
H          9.13671        2.60425        0.03152
H          7.83442        4.94632        1.56023
H          8.03810        3.29790        2.18728
H          6.94185        3.60458        0.84078
H          9.08460        8.81976       -5.18449
H          8.21256        7.59573       -6.10041
H         11.27231        7.73584       -5.90049
H         10.28685        8.20183       -7.28223
H         10.35498        6.50288       -6.76647
H         11.05701        8.76688       -3.69878
H         12.44532        6.44974       -2.21407
H         13.37008        9.47292       -4.45947
H         17.11298       10.78326       -1.29468
H         17.05332        7.87458       -0.26229
H         20.70577       11.53273        1.16733
