126

C        -16.60848        1.30994        1.36510
C        -17.46666        0.26771        1.45977
C        -18.87820        0.45172        1.61473
N        -20.01999        0.61352        1.72007
C        -17.06184       -1.08625        1.30432
N        -16.76600       -2.20473        1.19546
C        -17.00567        2.74657        1.41697
C        -16.03842        3.49409        0.74585
C        -16.07480        4.87946        0.64204
C        -17.16462        5.55801        1.23784
C        -18.13856        4.80756        1.91498
C        -18.06580        3.39976        2.03707
S        -19.38368        5.82300        2.55002
C        -18.64489        7.21287        1.94379
C        -17.46790        6.96257        1.28990
Br       -19.36967        8.92784        2.14900
C        -14.95148        2.61813        0.26755
O        -14.09667        2.93270       -0.53014
C        -15.18473        1.29383        0.94509
C        -14.19326        0.43492        1.24776
C        -12.78208        0.50580        0.81955
C        -11.73689        1.15910        1.54062
N        -11.64479        1.89817        2.72975
C        -12.62869        1.85199        3.80281
C        -13.66684        2.95569        3.75395
C        -10.39792        2.52758        2.83665
C         -9.59637        1.93879        1.85135
C        -10.41824        1.08859        1.06010
C        -10.10965        0.31453       -0.07897
C        -11.12606       -0.29231       -0.80128
C        -12.44091       -0.17334       -0.37138
C         -8.23130        2.29076        1.73266
C         -7.68471        3.26742        2.55495
C         -8.48299        3.88087        3.50616
C         -9.83541        3.51935        3.68313
C        -10.60180        4.27518        4.67152
C        -10.56354        3.96747        5.97561
C        -11.14584        4.80532        7.00319
C        -12.07509        4.42996        7.89458
C        -12.52454        5.25504        8.99190
C        -13.25133        4.58366        9.89707
C        -13.44795        3.18100        9.56688
S        -12.86454        2.87128        7.92845
C        -13.85636        2.21346       10.41125
C        -14.04031        2.35813       11.84431
C        -13.86771        1.20174       12.50605
C        -13.57204        0.08111       11.62962
S        -14.00739        0.50883        9.99085
C        -12.93518       -1.03426       12.03921
C        -12.44657       -2.19560       11.26457
C        -12.38231       -3.53116       11.79266
N        -12.77376       -4.16946       12.99007
C        -13.64203       -3.55155       13.97811
C        -15.11702       -3.80303       13.71305
C        -12.36513       -5.52238       13.03086
C        -11.89525       -5.77603       11.72929
C        -11.84253       -4.55401       11.00159
C        -11.34368       -4.28102        9.70710
C        -11.34529       -2.98965        9.21427
C        -11.86707       -1.97279        9.99245
C        -11.50544       -7.07563       11.33791
C        -11.58842       -8.12969       12.22678
C        -12.00098       -7.88636       13.52581
C        -12.34149       -6.59148       14.00181
C        -12.57053       -6.43343       15.46732
C        -11.90585       -7.16263       16.39520
C        -12.04413       -7.04115       17.83508
C        -11.11071       -6.83988       18.78459
C         -9.65222       -6.56810       18.87040
C         -8.80819       -6.08654       17.91876
C         -7.45353       -5.73589       18.15513
N         -6.34045       -5.43467       18.33510
C         -9.21159       -5.77529       16.58860
N         -9.42470       -5.45279       15.50327
C         -9.26481       -6.69036       20.31675
C        -10.41925       -6.84625       21.07920
C        -11.60047       -6.95686       20.21138
O        -12.73548       -7.13851       20.60153
C        -10.43156       -6.89589       22.46999
C         -9.19639       -6.78974       23.15242
C         -8.02541       -6.66943       22.39290
C         -8.03728       -6.63999       20.97803
S         -6.62790       -6.55555       23.40186
C         -7.55676       -6.67763       24.80417
C         -8.89997       -6.79491       24.55841
Br        -6.81487       -6.66321       26.52377
H        -15.27815        5.41656        0.13471
H        -18.82676        2.88391        2.61341
H        -16.84803        7.73308        0.84792
H        -14.39791       -0.47111        1.81347
H        -12.09422        1.86214        4.75755
H        -13.11681        0.87249        3.75733
H        -13.26765        3.91364        4.09335
H        -14.51529        2.70269        4.39800
H        -14.03517        3.11170        2.74307
H         -9.08027        0.23663       -0.41970
H        -10.88611       -0.84134       -1.70765
H        -13.21801       -0.63478       -0.97790
H         -7.61718        1.83106        0.96270
H         -6.64766        3.56583        2.42841
H         -8.04889        4.67299        4.11417
H        -11.09531        5.17132        4.30605
H        -10.03709        3.07702        6.31736
H        -10.70134        5.79677        7.08342
H        -12.26002        6.29951        9.08771
H        -13.63837        5.03731       10.79844
H        -14.19434        3.30714       12.33658
H        -13.88381        1.11263       13.58297
H        -12.60825       -1.04357       13.07288
H        -13.47311       -2.48162       14.00082
H        -13.33941       -3.87742       14.96947
H        -15.44582       -3.29368       12.79949
H        -15.71813       -3.41534       14.54180
H        -15.33200       -4.86926       13.59828
H        -10.91649       -5.07968        9.10687
H        -10.92499       -2.77204        8.23662
H        -11.79387       -0.96813        9.58363
H        -11.14055       -7.25022       10.32912
H        -11.29543       -9.12769       11.91466
H        -12.02593       -8.74378       14.19530
H        -13.27113       -5.67727       15.78908
H        -11.21504       -7.94685       16.08968
H        -13.07254       -7.23544       18.16396
H        -11.36708       -7.00277       23.01368
H         -7.08495       -6.56865       20.47247
H         -9.64777       -6.88590       25.33617
