118

C        -24.68086       -2.86674       -0.59553
C        -24.79804       -4.21646       -0.51852
C        -25.46873       -4.85975        0.55295
N        -26.03186       -5.39217        1.41816
C        -24.35652       -5.08167       -1.57142
N        -23.99226       -5.77033       -2.42156
C        -25.25005       -1.83256        0.33743
C        -25.23347       -0.61152       -0.34769
C        -25.61622        0.60791        0.17932
C        -26.14525        0.61019        1.47788
C        -26.23150       -0.60450        2.17948
C        -25.76186       -1.84224        1.63625
S        -26.98188       -0.34273        3.72212
C        -27.15381        1.31658        3.44115
C        -26.65914        1.71395        2.23173
Br       -27.94785        2.50915        4.64869
C        -24.75522       -0.76951       -1.71837
O        -24.86275        0.02940       -2.62323
C        -24.15659       -2.12200       -1.76049
C        -23.19792       -2.36914       -2.66341
N        -22.73415       -1.55473       -3.69265
C        -21.68169       -1.80676       -4.52862
S        -20.99099       -3.39663       -4.64149
C        -19.68334       -2.84723       -5.53645
N        -18.65250       -3.76934       -5.89524
O        -18.15059       -3.62384       -7.01680
O        -18.32524       -4.61960       -5.05689
C        -19.79135       -1.52885       -5.89710
C        -21.01680       -0.94857       -5.40728
C        -21.48008        0.33504       -5.87719
C        -20.70754        1.43014       -5.99866
C        -20.99794        2.53453       -6.90916
C        -20.53096        3.78824       -6.79482
C        -20.43751        4.73731       -7.88532
C        -19.55593        5.72322       -7.64510
C        -18.96394        5.65870       -6.31866
S        -19.82686        4.45676       -5.34921
C        -17.82300        6.23379       -5.89428
C        -16.81120        6.87644       -6.71244
C        -15.58166        6.79032       -6.16933
C        -15.57385        6.12518       -4.87676
S        -17.20383        6.06308       -4.25973
C        -14.49217        5.58182       -4.28731
C        -14.43676        4.76663       -3.04768
C        -13.29350        4.82036       -2.22955
C        -13.24077        4.01989       -1.08813
C        -14.34284        3.21838       -0.71828
C        -15.44347        3.10657       -1.53955
C        -15.45869        3.84592       -2.72136
C        -14.06808        2.56653        0.53632
C        -12.75075        2.86585        0.92833
C        -12.05482        3.73235       -0.13613
C        -10.96864        2.92444       -0.90863
C        -11.45262        1.70409       -1.69640
C        -11.45570        5.04798        0.44273
C        -10.24427        4.91189        1.37153
C        -12.25946        2.37426        2.12777
C        -13.09929        1.63982        2.98000
C        -14.40543        1.32872        2.55569
C        -14.89183        1.78015        1.32620
C        -12.63952        1.13220        4.28330
C        -11.52044        1.52146        4.91217
C        -11.05515        0.85733        6.09870
C        -10.71161        1.38348        7.27772
C        -10.72746        2.71519        7.91231
C        -11.52347        3.77588        7.61336
C        -11.29683        5.08337        8.13429
N        -11.08277        6.15421        8.52836
C        -12.70380        3.65707        6.82819
N        -13.72861        3.59523        6.28728
C         -9.83526        2.62127        9.11225
C         -9.38532        1.30323        9.23246
C         -9.90355        0.46844        8.14780
O         -9.67874       -0.71068        7.99670
C         -8.62985        0.81025       10.29048
C         -8.37824        1.68616       11.36415
C         -8.84766        3.00488       11.28155
C         -9.55393        3.49990       10.15298
S         -8.48794        3.88190       12.72658
C         -7.76020        2.53600       13.43764
C         -7.72598        1.43954       12.61913
Br        -7.08200        2.54052       15.18283
H        -25.52664        1.51690       -0.40766
H        -25.84300       -2.74170        2.23987
H        -26.67796        2.73529        1.86755
H        -22.64983       -3.30262       -2.58934
H        -23.17593       -0.62788       -3.71521
H        -19.06750       -1.02076       -6.52451
H        -22.47713        0.34725       -6.31365
H        -19.71057        1.44452       -5.55692
H        -21.44698        2.23112       -7.85436
H        -20.94582        4.60313       -8.83045
H        -19.29406        6.48528       -8.36639
H        -17.00492        7.27379       -7.69809
H        -14.67659        7.11946       -6.66015
H        -13.52649        5.69496       -4.77572
H        -12.45216        5.45342       -2.49275
H        -16.26577        2.44074       -1.30192
H        -16.29947        3.68175       -3.38989
H        -10.20067        2.57185       -0.21075
H        -10.46547        3.59277       -1.62031
H        -11.97245        0.98524       -1.05696
H        -10.59555        1.19042       -2.14380
H        -12.11843        1.98722       -2.51774
H        -12.22998        5.61560        0.97427
H        -11.13272        5.68358       -0.39230
H        -10.51153        4.48498        2.33990
H         -9.82389        5.89997        1.58648
H         -9.44391        4.31032        0.93144
H        -11.22875        2.55343        2.39559
H        -15.06201        0.73188        3.18589
H        -15.90179        1.53295        1.01668
H        -13.28649        0.39275        4.75260
H        -10.85148        2.26898        4.49734
H        -10.86699       -0.20619        5.92428
H         -8.31387       -0.22976       10.31344
H         -9.90743        4.52226       10.18587
H         -7.29699        0.48536       12.90205
