93

C        -11.37278        7.06907        1.41347
C        -12.40029        7.88751        1.07583
C        -13.17548        8.59517        2.03825
N        -13.81150        9.17301        2.81487
C        -12.77131        8.14988       -0.27199
N        -13.08636        8.35655       -1.37267
C        -10.85048        6.82203        2.79632
C         -9.60911        6.19005        2.69509
C         -8.83451        5.80320        3.78363
C         -9.33893        6.06545        5.07496
C        -10.58913        6.69103        5.19285
C        -11.36543        7.06884        4.06557
S        -11.01565        6.91453        6.85336
C         -9.58109        6.20213        7.38502
C         -8.77233        5.78070        6.36425
Br        -9.14194        6.00731        9.19549
C         -9.25760        5.94387        1.29200
O         -8.19174        5.50864        0.91064
C        -10.46048        6.35156        0.49092
C        -10.63290        5.95592       -0.77936
C         -9.68933        5.13493       -1.52750
N         -9.83961        3.80446       -1.42811
C         -9.00671        3.06966       -2.18473
C         -8.06773        3.61344       -3.02728
C         -8.01441        4.99130       -3.06025
N         -8.83810        5.77464       -2.33885
C         -7.10036        5.72518       -3.93608
C         -5.86648        5.31435       -4.26492
C         -4.98250        6.09400       -5.06688
S         -3.85394        5.25987       -6.05719
C         -3.12400        6.70050       -6.64152
C         -3.69380        7.81160       -6.03875
C         -4.82894        7.46539       -5.20862
C         -5.70098        8.54074       -4.61160
F         -6.79739        8.68741       -5.41254
C         -4.98089        9.88095       -4.51471
F         -5.86222       10.85489       -4.15068
C         -4.31593       10.25885       -5.82764
F         -5.22785       10.32334       -6.83568
C         -3.24335        9.24220       -6.18595
F         -2.19297        9.44416       -5.33046
C         -2.09095        6.56625       -7.61369
C         -1.09729        7.45681       -7.74755
C         -0.04339        7.35233       -8.74891
N         -0.07905        6.32373       -9.61073
C          0.91549        6.27317      -10.50856
C          1.91487        7.21171      -10.57951
C          1.86610        8.22034       -9.63939
N          0.89047        8.31452       -8.71759
C          2.90098        9.26138       -9.63220
C          3.19691       10.01006       -8.55773
C          4.21089       11.04027       -8.57659
C          4.90255       11.50536       -7.52669
C          4.93695       11.16202       -6.09790
C          4.92944        9.92205       -5.54768
C          4.96502        9.70201       -4.13980
N          4.95257        9.52870       -2.99296
C          4.96424        8.72657       -6.33289
N          5.03921        7.74147       -6.93369
C          5.29619       12.42202       -5.38017
C          5.79530       13.33069       -6.32076
C          5.63231       12.80505       -7.68704
O          5.96643       13.35628       -8.71460
C          6.33001       14.57047       -5.99309
C          6.37160       14.92380       -4.62548
C          5.81859       14.04248       -3.68300
C          5.25183       12.79440       -4.04268
S          5.94950       14.67992       -2.08210
C          6.76431       16.05267       -2.62774
C          6.91708       16.09041       -3.98777
Br         7.39706       17.39093       -1.48045
H         -7.88072        5.30387        3.63476
H        -12.33380        7.52302        4.23865
H         -7.81541        5.29440        6.51209
H        -11.52285        6.15961       -1.35818
H         -9.12371        1.99359       -2.10173
H         -7.42963        2.98701       -3.63444
H         -7.51089        6.66786       -4.28246
H         -5.49353        4.35723       -3.90643
H         -6.06116        8.26873       -3.61597
H         -4.22455        9.83171       -3.72251
H         -3.86999       11.25437       -5.73691
H         -2.89567        9.44582       -7.20187
H         -2.11770        5.69393       -8.26675
H         -0.98921        8.32035       -7.10544
H          0.88722        5.42487      -11.18492
H          2.69925        7.14040      -11.31982
H          3.45728        9.36689      -10.55853
H          2.65340        9.85447       -7.62738
H          4.33603       11.53740       -9.54201
H          6.71654       15.23085       -6.76473
H          4.82624       12.17025       -3.26509
H          7.40899       16.89690       -4.51816
