89

C         11.83600      -11.37419       -1.27151
C         10.70654      -10.80625       -1.69804
C         10.53430      -10.14773       -2.96448
C          9.30411       -9.64563       -3.13612
C          8.40854       -9.87168       -2.00903
S          9.24763      -10.77960       -0.74954
C          7.13752       -9.43434       -1.90938
C          6.44072       -8.63951       -2.90483
C          5.23263       -8.21712       -2.51185
C          4.86480       -8.67777       -1.19594
S          6.08529       -9.70919       -0.51069
C          3.71383       -8.34128       -0.60069
N          3.17577       -8.71247        0.60922
C          1.98295       -8.32628        1.14550
S          1.80126       -8.30205        2.86334
C          0.21311       -7.71867        2.76234
N         -0.56655       -7.44417        3.93959
O         -1.73650       -7.09752        3.76395
O         -0.00788       -7.55733        5.04426
C         -0.22410       -7.58342        1.47007
C          0.79608       -7.92893        0.52921
C          0.56399       -7.98123       -0.88350
C         -0.33142       -7.25351       -1.57993
C         -0.57870       -7.50240       -2.96682
S         -0.46870       -9.09955       -3.57394
C         -0.86636       -8.67532       -5.18421
C         -1.08533       -7.30301       -5.27119
C         -0.97479       -6.63378       -3.97605
C         -1.20169       -5.14785       -3.82704
F         -1.94297       -4.86980       -2.71689
C         -1.93224       -4.54510       -5.03158
C         -1.30970       -5.01974       -6.34178
C         -1.46466       -6.53655       -6.51625
F         -0.68661       -6.90604       -7.57364
C         -0.87089       -9.69642       -6.19636
C         -1.24309      -10.96368       -5.93154
N         -1.21291      -12.07748       -6.75464
C         -1.56123      -13.36456       -6.42366
S         -2.78193      -13.69907       -5.23104
C         -2.59803      -15.36092       -5.39940
N         -3.38528      -16.23789       -4.59518
O         -4.04672      -17.09356       -5.19745
O         -3.31579      -16.09649       -3.36827
C         -1.67586      -15.71879       -6.34602
C         -1.06626      -14.56305       -6.95589
C         -0.01853      -14.63290       -7.95148
C          0.49968      -15.76744       -8.45582
C          1.60201      -15.83188       -9.40451
C          2.14212      -16.95751       -9.90231
C          3.31738      -17.00061      -10.74363
C          3.80091      -18.23859      -10.93049
C          3.03091      -19.27818      -10.26570
S          1.57081      -18.57531       -9.57153
C          3.37934      -20.57070      -10.11041
C          4.62768      -21.18496      -10.53117
C          4.79655      -22.43682      -10.07927
C          3.68538      -22.91380       -9.29658
S          2.39037      -21.75617       -9.24743
C          3.62688      -24.08112       -8.65112
H         12.73473      -11.38224       -1.87852
H         11.89414      -11.84897       -0.29650
H         11.32740      -10.06844       -3.69476
H          9.01212       -9.11673       -4.03151
H          6.85476       -8.39096       -3.87094
H          4.58044       -7.60351       -3.11812
H          3.08632       -7.63259       -1.13154
H          3.81651       -9.26112        1.18978
H         -1.23424       -7.28694        1.20799
H          1.16214       -8.71649       -1.41545
H         -0.92438       -6.48393       -1.09054
H         -0.23102       -4.65382       -3.70273
H         -1.89876       -3.45070       -4.96715
H         -2.99540       -4.81682       -5.00162
H         -0.24655       -4.74665       -6.36835
H         -1.77399       -4.50474       -7.19127
H         -2.50405       -6.77074       -6.77419
H         -0.53220       -9.41917       -7.18913
H         -1.59248      -11.21407       -4.93105
H         -0.76964      -11.90618       -7.65199
H         -1.43679      -16.75395       -6.56506
H          0.39725      -13.69004       -8.29688
H          0.11721      -16.72658       -8.11756
H          2.04910      -14.87767       -9.67763
H          3.78113      -16.10909      -11.14345
H          4.69309      -18.44283      -11.50581
H          5.37651      -20.66797      -11.11354
H          5.67990      -23.03382      -10.25829
H          4.45152      -24.78403       -8.66523
H          2.75048      -24.35830       -8.07200
