128

C          3.49817        4.64734        9.63671
C          2.43831        5.01681       10.45246
F          1.30660        5.46436        9.89364
C          2.53645        4.93549       11.83478
C          3.71455        4.46551       12.42120
C          4.80809        4.08894       11.62540
C          4.69341        4.19619       10.20810
C          5.77500        3.85669        9.38671
C          6.97130        3.45730        9.96746
C          7.04649        3.27944       11.34729
C          5.99842        3.60221       12.19444
C          8.34289        2.67611       11.70175
O          8.72220        2.41766       12.82531
C          9.09573        2.48187       10.40268
C          8.22725        3.00333        9.33268
C          8.56284        3.34634        8.07240
C          8.16860        4.60168        7.52534
N          7.91040        5.65809        7.12302
C          9.05393        2.38762        7.14703
N          9.34891        1.63093        6.31933
C         10.36817        2.06460       10.50080
C         11.26672        1.95234        9.40703
S         11.49244        0.40621        8.69978
C         12.50927        1.02107        7.45566
C         12.80345        2.36170        7.69300
C         12.11027        2.88980        8.82855
S         12.27523        4.53218        9.46206
C         12.93581        5.43955        8.11409
O         13.76472        6.32231        8.29529
C         12.43901        5.05759        6.76079
C         13.34627        4.05387        6.14048
O         13.75341        4.17898        4.98804
O         13.72015        2.99865        6.91644
C         12.88233        0.12664        6.40161
C         13.17348        0.60387        5.18790
C         13.48271       -0.12700        3.97889
C         14.69689        0.11705        3.42140
C         14.84285       -0.06292        1.99053
C         15.82263        0.36543        1.15118
C         17.22750        0.85110        1.47303
C         18.25904        0.38037        0.39678
N         19.66750        0.69250        0.65224
C         17.31147        2.37518        1.72461
N         16.53300        2.82135        2.88073
C         15.19223        0.31071       -0.16926
C         15.49465        0.93215       -1.31923
C         14.61897        0.82384       -2.55376
C         13.42069       -0.10247       -2.39151
C         13.08683       -0.67759       -1.22369
C         13.91326       -0.39191       -0.08479
C         13.68765       -0.57437        1.22138
C         12.53813       -1.10222        1.91305
C         12.44928       -0.87553        3.23793
C         15.45429        0.35810       -3.70811
C         15.62346        1.05863       -4.84174
C         16.35201        0.53495       -5.95095
S         16.27321       -1.13717       -6.30743
C         17.32677       -1.04076       -7.64716
C         17.63440        0.29000       -7.90281
C         17.11379        1.18857       -6.90663
S         17.39734        2.93812       -6.86090
C         18.99495        3.02935       -7.58560
O         19.98007        3.30612       -6.91244
C         19.03965        2.88072       -9.07055
C         18.15090        1.79875       -9.59110
O         17.39659        1.93945      -10.54564
O         18.38808        0.59981       -8.99282
C         17.63137       -2.19987       -8.42559
C         17.83950       -3.45629       -7.99192
C         17.86052       -3.97947       -6.63995
C         18.88005       -4.57312       -5.99988
C         18.78161       -4.73079       -4.50497
O         17.78312       -4.72988       -3.81634
C         20.17505       -4.82356       -4.02304
C         20.59731       -4.86671       -2.70182
C         21.97773       -4.87907       -2.44437
C         22.89510       -4.79930       -3.53239
C         24.27183       -4.77965       -3.26864
C         24.73484       -4.86032       -1.96092
C         23.85348       -4.95897       -0.89321
C         22.47760       -4.96304       -1.13269
F         26.05409       -4.84832       -1.72916
C         22.42416       -4.75358       -4.85942
C         21.06093       -4.81403       -5.10988
C         20.26265       -4.90770       -6.36472
C         20.69228       -5.50730       -7.50531
C         19.81704       -5.93521       -8.53568
N         19.12418       -6.32591       -9.39297
C         22.04844       -5.89156       -7.70674
N         23.15373       -6.19653       -7.88386
H          3.37824        4.73094        8.55977
H          1.69362        5.23858       12.44782
H          3.77208        4.40286       13.50595
H          5.65768        3.89873        8.30660
H          6.10584        3.46998       13.26787
H         10.77915        1.81748       11.48113
H         12.44566        5.96367        6.14224
H         11.40585        4.70044        6.76887
H         12.86943       -0.94629        6.57455
H         13.12602        1.66891        4.97936
H         15.44933        0.69677        3.94676
H         17.53277        0.35131        2.40534
H         18.03973        0.81860       -0.57710
H         18.17942       -0.70629        0.27123
H         19.81350        1.70067        0.65275
H         19.94332        0.35297        1.57098
H         16.99613        2.93187        0.83668
H         18.34951        2.65405        1.93279
H         15.53754        2.67264        2.70263
H         16.63214        3.82790        3.00658
H         16.34533        1.59677       -1.40137
H         14.22294        1.82703       -2.75937
H         12.80561       -0.28404       -3.26873
H         12.22158       -1.32158       -1.12650
H         11.76000       -1.62140        1.36836
H         11.57313       -1.20153        3.79097
H         15.91321       -0.62133       -3.57451
H         15.18257        2.04764       -4.93957
H         20.06474        2.65741       -9.38390
H         18.74690        3.83710       -9.51789
H         17.68547       -2.03782       -9.50226
H         17.95685       -4.19519       -8.77678
H         16.94776       -3.80740       -6.06967
H         19.86755       -4.88571       -1.89606
H         25.00078       -4.71185       -4.07165
H         24.24309       -5.02938        0.11757
H         21.79918       -5.03665       -0.28432
H         23.14757       -4.67590       -5.66566
