101

C          5.47907        3.21306        1.30859
C          5.76621        4.18865        2.20122
C          6.86864        5.07227        2.03601
N          7.77966        5.77938        1.90212
C          5.03484        4.32377        3.41985
N          4.43382        4.40264        4.40995
C          6.25812        2.82966        0.10465
C          5.96737        1.48831       -0.19796
C          6.42666        0.84880       -1.33620
C          7.14169        1.61152       -2.26648
C          7.44016        2.97868       -1.98943
C          7.02511        3.57058       -0.78028
C          8.08590        3.74539       -2.96899
C          8.39798        3.19614       -4.21338
C          8.10569        1.86194       -4.48203
C          7.49913        1.06810       -3.50805
C          4.92179        0.97461        0.70973
O          4.46746       -0.14922        0.74570
C          4.44309        2.18407        1.45149
C          3.13602        2.23063        1.74736
C          2.40439        3.50716        1.90320
N          2.72903        4.61518        1.27970
C          1.73721        5.47199        1.63434
C          0.78863        4.81785        2.50038
C         -0.28602        5.79233        2.84519
O         -1.28434        5.65790        3.51624
C          0.14041        7.00265        2.11973
C          1.36220        6.72800        1.41492
N          1.75576        7.83331        0.73303
C          0.82387        8.70010        1.02549
C         -0.26383        8.24804        1.91737
C          1.15188        3.55922        2.72648
C          0.57806        2.52091        3.52125
C         -0.53173        2.65610        4.26125
C         -1.09835        1.62608        5.06506
C         -0.50360        0.64916        5.74808
C         -1.50671       -0.13436        6.37550
C         -2.81671        0.45312        6.05123
O         -3.92743        0.07083        6.34657
N         -2.46134        1.54508        5.25650
C         -0.85036       -1.10139        6.99655
O          0.55938       -1.04374        6.84573
C          0.80127        0.07745        6.06733
O          1.89043        0.48004        5.70563
C         -1.50115       -2.13711        7.80207
N         -2.56426       -1.91208        8.53392
C         -2.79860       -3.10987        9.12019
C         -1.80552       -4.07188        8.71588
C         -2.08502       -5.35911        9.40411
O         -1.47110       -6.40194        9.36047
C         -3.30473       -5.04242       10.18844
C         -3.66597       -3.66787        9.95696
N         -4.77805       -3.35080       10.66829
C         -5.05776       -4.46823       11.27924
C         -4.15332       -5.61283       11.03405
C         -0.94676       -3.53103        7.85665
C          0.16774       -4.10016        7.16134
C          0.04822       -5.13409        6.31328
C          1.17176       -5.73039        5.61530
C          1.32010       -5.80838        4.28116
C          2.38785       -6.41327        3.43501
C          3.49831       -7.08141        3.84152
C          4.48648       -7.58506        2.94567
N          5.30250       -7.99686        2.23104
C          3.80090       -7.33657        5.20887
N          4.06852       -7.55242        6.31753
C          2.02463       -6.11361        2.00916
C          0.85445       -5.34776        1.99311
C          0.33576       -5.15244        3.34835
O         -0.68882       -4.55535        3.61245
C          0.28015       -4.83246        0.83853
C          0.89533       -5.10277       -0.38664
C          2.05404       -5.92275       -0.41895
C          2.60310       -6.42576        0.78240
C          2.64686       -6.20963       -1.65862
C          2.12661       -5.68078       -2.84121
C          1.00483       -4.85825       -2.80296
C          0.38846       -4.57473       -1.58380
H          6.13915       -0.17921       -1.53827
H          7.22574        4.62462       -0.61002
H          8.31439        4.79435       -2.78876
H          8.85456        3.81769       -4.97971
H          8.33415        1.44225       -5.45852
H          7.26830        0.03165       -3.74614
H          2.52533        1.33518        1.67102
H          0.80346        9.73287        0.64847
H         -1.11920        8.78492        2.27566
H          1.10972        1.57235        3.52440
H         -1.08576        3.58565        4.28528
H         -3.14938        2.16552        4.84883
H         -5.91585       -4.60037       11.95518
H         -4.19693       -6.60182       11.44292
H          1.13912       -3.64342        7.33648
H         -0.92772       -5.57291        6.10397
H          1.89557       -6.14868        6.30600
H         -0.61862       -4.22513        0.90421
H          3.48805       -7.04592        0.69951
H          3.52936       -6.84456       -1.71575
H          2.60265       -5.90755       -3.79207
H          0.60785       -4.43715       -3.72330
H         -0.48822       -3.93014       -1.57660
