138

C          0.00187       12.35991        3.83909
C          1.30405       12.06228        4.03762
C          2.27247       13.06863        4.32298
N          3.04678       13.90666        4.53762
C          1.74972       10.71000        4.13008
N          2.13032        9.62587        4.28831
C         -0.65256       13.66465        4.07015
C         -1.96009       13.41254        4.52103
C         -2.84985       14.41751        4.85063
C         -2.44506       15.74230        4.63847
C         -1.15901       16.01686        4.08280
C         -0.25532       14.96873        3.82593
C         -0.81877       17.34133        3.77473
C         -1.70580       18.38528        4.03963
C         -2.93901       18.12157        4.62908
C         -3.30901       16.80861        4.92317
C         -2.27419       11.96992        4.37884
O         -3.30231       11.40511        4.68156
C         -1.09432       11.41506        3.63962
C         -1.33036       10.58547        2.60581
N         -0.59666       10.42517        1.43048
C         -0.51362       11.69464        0.59543
C         -1.71976       11.84366       -0.33174
C         -0.44699        9.29030        0.62055
C          0.71611        9.26073       -0.15257
S          0.50297        8.41601       -1.61196
C         -0.99890        7.83379       -1.05351
C         -1.20100        8.06421        0.30840
N         -2.09869        7.22078        0.98589
C         -2.84261        7.75209        2.13950
C         -4.09734        8.47559        1.67316
C         -2.05777        5.77110        0.86330
C         -2.98875        4.92535        1.41373
C         -2.62449        3.54344        1.71288
C         -3.25531        2.54161        2.38201
C         -4.69765        2.19031        2.65036
C         -5.39667        3.01683        3.74394
N         -6.72542        2.48807        4.09881
C         -5.48246        2.09232        1.31197
N         -5.72426        3.36719        0.63380
C         -2.17161        1.63482        2.74578
C         -2.02469        0.85278        3.82676
C         -0.65493        0.28677        4.16682
C          0.30051        0.23231        2.96806
C          0.14190        1.04508        1.90381
C         -1.00337        1.91018        1.93228
C         -1.26959        3.07728        1.33882
C         -0.49939        3.84682        0.41799
C         -0.88664        5.11469        0.20160
C         -0.76180       -1.02588        4.89510
C         -0.73407       -1.08527        6.24128
N         -0.61457       -2.17244        7.13302
C         -0.63597       -1.85100        8.58341
C          0.64029       -1.18815        9.06675
C         -0.07243       -3.38861        6.72417
C          0.97690       -3.37071        5.81050
S          1.38257       -4.88830        5.18501
C          0.21610       -5.61927        6.17753
C         -0.40366       -4.77700        7.09331
N         -1.27004       -5.30570        8.06065
C         -2.48008       -4.52829        8.44641
C         -3.71445       -4.89943        7.64223
C         -1.26189       -6.66319        8.48493
C         -0.39659       -7.69078        8.56287
C         -0.81381       -9.11371        8.59490
C         -1.73438       -9.69611        9.39967
C         -1.98812      -11.09706        9.37545
N         -2.20454      -12.23476        9.33723
C         -2.46704       -8.94887       10.36210
N         -3.08095       -8.33056       11.13884
C          0.10467       -9.80935        7.65542
C          1.24204       -9.00724        7.48252
C          1.06308       -7.72105        8.19514
O          1.92855       -6.90624        8.42985
C          2.26666       -9.32772        6.60444
C          2.11279      -10.46740        5.79879
C          0.94328      -11.27250        5.92481
C         -0.04651      -10.94615        6.87228
C          0.76843      -12.36587        5.06242
C          1.71907      -12.66657        4.08628
C          2.86723      -11.88908        3.97020
C          3.06667      -10.80128        4.82393
H         -3.84895       14.17045        5.19856
H          0.71640       15.18995        3.39161
H          0.13905       17.57464        3.31317
H         -1.43098       19.40670        3.78798
H         -3.62037       18.93933        4.85062
H         -4.28480       16.62637        5.36906
H         -2.34292       10.22540        2.49023
H          0.41207       11.72519        0.01032
H         -0.45955       12.58636        1.22795
H         -1.49516       12.56482       -1.12383
H         -2.58887       12.21038        0.22327
H         -2.00774       10.90403       -0.81207
H          1.60336        9.86757       -0.03431
H         -1.56377        7.17371       -1.69638
H         -2.18638        8.33629        2.77607
H         -3.15570        6.96943        2.83933
H         -3.87504        9.25592        0.93860
H         -4.61054        8.93670        2.52270
H         -4.79319        7.77115        1.20367
H         -3.89910        5.28328        1.87942
H         -4.69836        1.15353        3.02326
H         -5.49515        4.06271        3.43969
H         -4.79242        2.99702        4.65874
H         -7.25955        3.22614        4.55700
H         -7.25141        2.27539        3.25241
H         -6.45173        1.61464        1.48608
H         -4.95118        1.42182        0.62306
H         -4.91517        3.55946        0.03568
H         -6.50660        3.26781       -0.01051
H         -2.81237        0.77064        4.56788
H         -0.18320        1.00225        4.85948
H          1.17065       -0.41558        3.01920
H          0.83066        1.07008        1.06840
H          0.33149        3.40412       -0.11585
H         -0.30790        5.65048       -0.53237
H         -0.78400       -1.92850        4.29229
H         -0.77483       -0.13917        6.78127
H         -0.78676       -2.73006        9.21237
H         -1.48623       -1.17943        8.77535
H          1.47562       -1.89163        9.01796
H          0.51340       -0.88160       10.11082
H          0.89751       -0.30038        8.48324
H          1.49022       -2.50315        5.42187
H          0.07598       -6.67689        6.04584
H         -2.37135       -3.45995        8.32402
H         -2.67461       -4.68818        9.51685
H         -3.50684       -4.88001        6.56940
H         -4.50980       -4.17561        7.85281
H         -4.09481       -5.88878        7.90996
H         -2.28887       -6.90685        8.73729
H          3.11996       -8.66328        6.49528
H         -0.94783      -11.54913        6.92154
H         -0.12457      -12.98505        5.12652
H          1.55816      -13.50430        3.41152
H          3.60388      -12.12156        3.20495
H          3.96610      -10.20092        4.70221
