101

C          3.91605        5.51398       -7.23796
C          2.83615        6.35033       -7.48651
F          2.71783        6.92789       -8.68889
C          1.89853        6.62388       -6.49984
C          2.02981        6.04088       -5.23757
C          3.12817        5.21759       -4.94468
C          4.09418        4.96470       -5.96385
C          5.26550        4.25014       -5.67413
C          5.52810        3.89866       -4.36070
C          4.52790        4.07023       -3.38906
C          3.32161        4.69632       -3.65725
C          5.00729        3.61706       -2.06691
O          4.36056        3.56574       -1.04320
C          6.43508        3.20422       -2.27718
C          6.79600        3.58378       -3.64943
C          8.00086        4.04025       -4.06680
C          8.99497        4.46174       -3.13290
N          9.77148        4.87068       -2.37507
C          8.33453        4.21967       -5.43991
N          8.61136        4.31779       -6.55887
C          7.06203        2.46751       -1.34536
C          8.30799        1.79426       -1.54391
C          8.87021        1.23258       -2.69802
C         10.12371        0.64392       -2.44109
C         10.42197        0.67712       -1.09996
S          9.33935        1.51410       -0.16147
C         11.59634       -0.07147       -0.88158
C         12.05405       -0.54859       -2.08912
C         11.17633       -0.07835       -3.15734
C         11.32982       -0.21313       -4.48992
C         12.44591       -0.89639       -5.05708
N         13.34844       -1.43932       -5.53870
C         10.40125        0.35690       -5.39649
N          9.61515        0.84646       -6.10335
C         13.19794       -1.35286       -1.92703
C         13.56345       -1.45563       -0.58094
S         12.47278       -0.55847        0.43850
C         14.68732       -2.17888        0.01880
C         14.68770       -2.75972        1.30100
C         15.79250       -3.47887        1.83727
C         17.00803       -3.74591        1.15058
C         17.03629       -3.13623       -0.13867
C         15.89889       -2.36008       -0.68841
N         16.25494       -1.90737       -1.90633
N         17.48605       -2.39455       -2.05501
N         18.00724       -3.13863       -1.07625
C         18.25314       -2.10392       -3.24164
C         18.10620       -4.61962        1.65681
C         19.43882       -4.35146        1.29674
C         20.47718       -5.21725        1.62707
C         20.22864       -6.38243        2.35763
C         18.91559       -6.66224        2.78146
N         18.65880       -7.78015        3.51101
C         17.40669       -7.97945        3.96477
C         16.39566       -7.10616        3.67993
N         16.60201       -6.02253        2.91119
C         17.85500       -5.76218        2.45449
C         21.39555       -7.29210        2.53640
C         21.72706       -8.13028        3.53219
C         22.79200       -9.16280        3.27918
O         23.66843       -9.14457        2.44051
C         22.50934      -10.25781        4.22926
C         23.16450      -11.47545        4.31316
C         22.68264      -12.42282        5.22720
C         21.50146      -12.14436        5.97793
C         20.99646      -13.12369        6.84406
C         21.67107      -14.32877        7.00499
C         22.84531      -14.59230        6.31356
C         23.34443      -13.64698        5.41632
F         21.18541      -15.24545        7.85221
C         20.86929      -10.89062        5.86814
C         21.41688       -9.92160        5.04087
C         21.10947       -8.48648        4.81030
C         20.61101       -7.63353        5.73703
C         20.67223       -6.22128        5.56928
N         20.74500       -5.06615        5.46548
C         20.04888       -8.07843        6.96423
N         19.56117       -8.45607        7.94708
H          4.63876        5.34878       -8.03318
H          1.07978        7.30312       -6.71529
H          1.29362        6.27650       -4.47154
H          5.98573        4.07937       -6.46776
H          2.60174        4.85752       -2.85893
H          6.57264        2.31893       -0.38122
H          8.37199        1.23987       -3.65869
H         13.74737       -1.84793       -2.71938
H         13.79773       -2.68639        1.92713
H         15.66067       -3.86596        2.84908
H         17.61352       -1.60575       -3.97481
H         18.62578       -3.04556       -3.65109
H         19.08165       -1.44936       -2.96028
H         19.68953       -3.46230        0.71981
H         21.48262       -4.97316        1.28648
H         17.24836       -8.85862        4.57772
H         15.39071       -7.24297        4.06024
H         22.03989       -7.30680        1.65240
H         24.02816      -11.67263        3.68389
H         20.08722      -12.95942        7.41622
H         23.36400      -15.53202        6.47585
H         24.26352      -13.86877        4.87722
H         19.96884      -10.69899        6.44431
