94

C         -2.92051        3.39443        0.91361
C         -2.64803        3.65383        2.26135
C         -2.20614        2.63707        3.11430
C         -1.98631        1.34943        2.62812
C         -2.19547        1.10232        1.27736
C         -2.70726        2.11471        0.41524
C         -3.00816        1.49976       -0.92698
C         -3.25580        2.13725       -2.09506
C         -3.30511        3.55535       -2.20541
N         -3.35531        4.71100       -2.30001
C         -3.44249        1.43067       -3.31856
N         -3.61248        0.84760       -4.30704
C         -2.89333        0.02647       -0.70238
C         -2.02159       -0.14388        0.48450
C         -1.09637       -1.11189        0.69005
C         -0.81708       -2.10260       -0.29880
N         -0.57797       -2.90527       -1.10159
C         -0.30538       -1.18364        1.87068
N          0.32489       -1.26441        2.84156
C         -3.74915       -0.88546       -1.21309
C         -3.96281       -2.19473       -0.67714
C         -3.93926       -2.65140        0.64717
C         -4.23656       -4.02300        0.73358
C         -4.59725       -4.52540       -0.49303
S         -4.41579       -3.47957       -1.76682
C         -5.02373       -5.85466       -0.32499
C         -4.88489       -6.21052        0.99726
C         -4.33363       -5.08009        1.74070
C         -3.92145       -5.04663        3.02447
C         -3.99055       -6.19449        3.86089
N         -4.03412       -7.13742        4.53538
C         -3.33558       -3.87966        3.58146
N         -2.85585       -2.90741        4.00495
C         -5.29106       -7.54193        1.21866
C         -5.74596       -8.12960        0.03645
S         -5.67354       -7.01897       -1.30336
C         -6.22467       -9.47662       -0.21453
N         -6.04817      -10.00368       -1.45021
N         -6.43254      -11.32247       -1.79885
C         -7.01249      -12.19658       -0.94404
C         -7.23807      -11.72172        0.36990
C         -6.83377      -10.31381        0.74712
N         -7.12850      -10.01870        2.02793
S         -7.81902      -11.36855        2.69348
N         -7.79070      -12.39641        1.39679
C         -7.33568      -13.55735       -1.34918
C         -7.12760      -14.10892       -2.55289
C         -6.59508      -13.50780       -3.75127
C         -6.45867      -14.35979       -4.77341
C         -6.83471      -15.72043       -4.45083
S         -7.49563      -15.79820       -2.81953
C         -6.64769      -16.79148       -5.24083
C         -6.09487      -16.78038       -6.58180
C         -5.81182      -18.00037       -7.05608
C         -6.11496      -19.06023       -6.12146
S         -6.95815      -18.44339       -4.72852
C         -5.74403      -20.33513       -6.30296
C         -5.95101      -21.43438       -5.37211
C         -5.56676      -22.71302       -5.51670
C         -5.72671      -23.88544       -4.60816
C         -6.36376      -23.93765       -3.40845
C         -7.02242      -22.82850       -2.80352
N         -7.57555      -21.95139       -2.28211
C         -6.44718      -25.12378       -2.62041
N         -6.52057      -26.07228       -1.96285
C         -5.05448      -25.04336       -5.28886
C         -4.55353      -24.61097       -6.52276
C         -4.81914      -23.19186       -6.73057
O         -4.46156      -22.57835       -7.71570
C         -3.88644      -25.42380       -7.42543
C         -3.69536      -26.75337       -7.07710
C         -4.16657      -27.23566       -5.84397
C         -4.85013      -26.37790       -4.95458
C         -3.95208      -28.67330       -5.46374
H         -3.31217        4.20805        0.31418
H         -2.80589        4.65464        2.65987
H         -2.03901        2.85012        4.16859
H         -1.68037        0.57507        3.32510
H         -4.43102       -0.61654       -2.01734
H         -3.72492       -2.00578        1.48809
H         -5.25001       -8.07746        2.16022
H         -7.76643      -14.17394       -0.56166
H         -6.31969      -12.46735       -3.83898
H         -6.06096      -14.05732       -5.73103
H         -5.91141      -15.87597       -7.14361
H         -5.37169      -18.18441       -8.02679
H         -5.20858      -20.55123       -7.22296
H         -6.46315      -21.12728       -4.46959
H         -3.52600      -25.02788       -8.37081
H         -3.17371      -27.41356       -7.76693
H         -5.19195      -26.80939       -4.02051
H         -3.35118      -29.20043       -6.21196
H         -4.91524      -29.18593       -5.37744
H         -3.42210      -28.73192       -4.50744
