91

C         -5.99103       -1.23124       -4.12669
C         -4.62092       -1.34109       -4.33194
C         -3.95228       -0.21345       -3.81099
C         -4.83398        0.68269       -3.24628
S         -6.43287        0.23091       -3.31047
C         -4.10776        1.78511       -2.75257
C         -2.76737        1.59199       -3.00039
C         -2.59007        0.30886       -3.68766
C         -1.44484       -0.26108       -4.11269
C         -0.18688        0.37235       -3.92378
N          0.83884        0.89327       -3.76850
C         -1.43383       -1.51978       -4.77060
N         -1.42569       -2.54885       -5.30870
C         -1.99092        2.67730       -2.52781
C         -2.79704        3.66368       -1.95295
S         -4.47912        3.20134       -1.97961
C         -2.37695        4.92571       -1.37516
C         -1.16123        5.22334       -0.74881
C         -1.13240        6.56449       -0.29119
C         -2.29493        7.22214       -0.61433
S         -3.42068        6.31928       -1.42375
C         -2.22908        8.54266       -0.13505
C         -1.03055        8.73770        0.50419
C         -0.25075        7.49150        0.43196
C          0.98767        7.25158        0.90709
C          1.73077        8.25800        1.58370
N          2.33708        9.08043        2.13410
C          1.61448        5.98574        0.74905
N          2.12567        4.94966        0.61153
C         -0.94740       10.05420        1.03061
C         -2.10055       10.81416        0.75508
S         -3.24402        9.84336       -0.14850
C         -2.46194       12.21717        1.13343
C         -3.29295       13.08145        0.37003
C         -3.62019       14.43411        0.77140
N         -4.41632       15.18553       -0.02823
C         -4.88753       14.66592       -1.19506
C         -4.58470       13.38853       -1.57297
N         -3.78751       12.61628       -0.79871
C         -5.06003       12.78577       -2.78368
N         -5.45302       12.31272       -3.76879
C         -5.69483       15.53551       -1.99528
N         -6.35430       16.22089       -2.66013
C         -3.13768       15.01041        1.97040
C         -2.29006       14.17565        2.76648
C         -1.95253       12.76465        2.34534
N         -1.15590       12.14531        3.23583
S         -0.84550       13.20094        4.46352
N         -1.68968       14.50229        3.92429
C         -3.45117       16.40561        2.41283
C         -3.71055       17.56924        1.66433
C         -3.96158       18.69610        2.49314
C         -3.89502       18.35242        3.81997
S         -3.60587       16.75718        4.12185
C         -4.15562       19.48425        4.61327
C         -4.40272       20.56124        3.79637
C         -4.28996       20.12676        2.39699
C         -4.45578       20.86948        1.28575
C         -4.77721       22.25183        1.35524
N         -5.03951       23.38054        1.42306
C         -4.30960       20.30739       -0.01255
N         -4.17820       19.84357       -1.06589
C         -4.69760       21.72005        4.55886
C         -4.66734       21.44940        5.93218
S         -4.23860       19.78891        6.23766
C         -4.92826       22.36470        7.02756
C         -4.72313       23.74717        7.05195
C         -5.08815       24.29922        8.30367
C         -5.56195       23.33212        9.16130
S         -5.59257       21.79828        8.53809
C         -5.90564       23.93009       10.39035
C         -5.64813       25.28207       10.31497
C         -5.11706       25.59642        8.98763
C         -4.73764       26.79683        8.51246
C         -4.82222       27.97883        9.29640
N         -4.89661       28.94570        9.94466
C         -4.23799       26.95148        7.18985
N         -3.82589       27.06804        6.11128
C         -5.96577       25.93804       11.52364
C         -6.45459       25.02999       12.45565
S         -6.51643       23.41007       11.84662
H         -6.76286       -1.93285       -4.41387
H         -4.17787       -2.19438       -4.83033
H         -0.91481        2.77441       -2.60715
H         -0.37429        4.48908       -0.62367
H         -0.10839       10.44687        1.59343
H         -3.71307       17.57923        0.58103
H         -4.94558       22.69734        4.16229
H         -4.31625       24.29230        6.20879
H         -5.86109       26.99305       11.74536
H         -6.78024       25.22794       13.46829
