85

C         -4.35032       -0.95851        4.20412
C         -4.93280        0.21719        4.66178
C         -4.33611        1.33643        4.04264
C         -3.34953        0.96355        3.15460
S         -3.10084       -0.67718        3.03708
C         -2.79612        2.12491        2.57314
C         -3.42358        3.23269        3.09497
C         -4.44556        2.79628        4.05271
C         -5.29484        3.55438        4.77398
C         -5.28953        4.97246        4.67825
N         -5.28387        6.12909        4.60430
C         -6.23544        2.98022        5.66881
N         -7.00422        2.50733        6.40535
C         -2.89296        4.42956        2.55502
C         -1.86204        4.17575        1.64051
S         -1.63147        2.45697        1.44170
C         -1.07089        5.14823        0.89013
S         -1.77507        6.63866        0.40135
C         -0.35534        7.19254       -0.40380
C          0.65400        6.23746       -0.30575
C          0.25441        5.07553        0.47034
C          1.20771        3.93175        0.73390
C          2.67581        4.24899        0.41438
C          3.30767        4.96955        1.53482
N          3.82463        5.54244        2.40009
C          2.83718        5.04680       -0.89317
C          2.45516        4.20345       -2.04576
N          2.17340        3.51064       -2.92937
C          2.04115        6.36747       -0.88943
C         -0.37531        8.48763       -1.04192
C         -0.03984        9.57400       -0.31439
C         -0.08841       10.90914       -0.86488
C         -0.50142       11.18532       -2.24804
C         -0.85986       10.24062       -3.11664
S         -0.87818        8.53574       -2.72907
C         -0.44323       12.58827       -2.41699
C         -0.04025       13.17466       -1.24174
C          0.06748       14.57391       -1.31359
C         -0.27972       15.00450       -2.58686
S         -0.71645       13.69212       -3.64248
C          0.17056       12.11637       -0.28328
C          0.59379       12.32083        1.07319
C         -0.10334       13.04153        1.96359
C          0.33226       13.21536        3.34217
N          1.65054       13.15732        3.60347
C          2.00365       13.32254        4.88733
C          1.09493       13.50465        5.89971
C         -0.23178       13.54558        5.52069
N         -0.63402       13.42435        4.24351
C         -1.27156       13.71032        6.53763
C         -2.49939       14.20343        6.29658
C         -3.53987       14.36554        7.32970
C         -4.46706       15.41798        7.22659
C         -5.43752       15.60950        8.21708
N         -6.29193       16.68371        8.03400
C         -5.99241       17.29589        6.91365
S         -4.67892       16.65386        6.02891
C         -5.48031       14.72642        9.30046
C         -4.58973       13.66156        9.38392
C         -3.61290       13.45608        8.40972
N         -2.81372       12.33555        8.63469
C         -3.18042       11.72582        9.73495
S         -4.47390       12.43757       10.59094
H         -4.59188       -1.97338        4.49256
H         -5.73131        0.21876        5.39401
H         -3.21230        5.43402        2.80539
H          0.90021        3.08904        0.10138
H          1.12141        3.60620        1.77865
H          3.20448        3.28840        0.32206
H          3.89895        5.29855       -1.02661
H          1.98405        6.77231       -1.90732
H          2.58557        7.10424       -0.28411
H          0.25005        9.47763        0.72810
H         -1.16267       10.51340       -4.12330
H          0.37708       15.23665       -0.51446
H         -0.29771       16.02028       -2.96036
H          1.51439       11.82196        1.36730
H         -1.05464       13.50064        1.71627
H          3.07160       13.30625        5.08312
H          1.41235       13.62773        6.92587
H         -0.97953       13.39538        7.53475
H         -2.75044       14.53616        5.29180
H         -6.54406       18.16135        6.56830
H         -6.23168       14.87851       10.07046
H         -2.68823       10.82628       10.08080
