89

C         -1.77412       -2.30866        1.76726
C         -1.46076       -2.16662        0.42084
C         -1.45919       -0.80198        0.05785
C         -1.76318        0.01408        1.12664
S         -2.05603       -0.79023        2.55265
C         -1.73454        1.36084        0.70076
C         -1.41435        1.40157       -0.63687
C         -1.22582        0.02716       -1.12487
C         -0.91580       -0.39138       -2.36674
C         -0.71544        0.53002       -3.42963
N         -0.54664        1.27705       -4.29505
C         -0.76164       -1.77282       -2.68782
N         -0.63957       -2.89250       -2.94247
C         -1.36477        2.73821       -1.11120
C         -1.64658        3.66995       -0.09879
S         -1.97843        2.84374        1.40656
C         -1.70538        5.14727       -0.13869
C         -1.41403        6.00986        0.93435
N         -1.45465        7.39440        0.98217
C         -1.83703        8.12946       -0.11154
C         -2.12022        7.40041       -1.31049
C         -2.06356        5.87043       -1.30724
N         -2.39747        5.34708       -2.50248
S         -2.70410        6.60588       -3.52881
N         -2.43434        7.88615       -2.52603
C         -1.90031        9.60426        0.01342
S         -3.05686       10.48058       -0.95060
C         -2.46869       12.03013       -0.53820
C         -1.47572       11.86625        0.43361
C         -1.22000       10.49049        0.85514
C         -0.22753       10.15806        2.03178
C          0.11566       11.44090        2.98487
C         -1.24183       11.67099        3.62882
N         -2.36798       11.86187        4.16304
C          0.39575       12.54550        1.96000
C          1.69093       12.23469        1.22768
N          2.76540       11.97685        0.62017
C         -0.69516       12.98320        1.01681
C         -2.96155       13.28909       -1.20434
C         -3.02330       14.57032       -0.59672
O         -3.24560       14.60252        0.76881
C         -3.96942       15.73481        1.28665
C         -2.87545       15.79453       -1.33674
O         -2.19101       16.86361       -0.75637
C         -1.15499       16.48248        0.16413
C         -3.29526       15.95551       -2.68530
C         -3.53418       14.68357       -3.28043
C         -3.28600       13.38401       -2.58408
N         -3.41796       12.41635       -3.50423
O         -3.87101       13.01731       -4.65299
N         -3.97064       14.37816       -4.50982
C         -3.49357       17.26224       -3.40835
S         -4.00635       18.64180       -2.49020
C         -4.09924       19.70412       -3.83925
C         -3.80312       19.01570       -5.00776
C         -3.38766       17.63409       -4.75655
C         -2.94794       16.72803       -5.88294
C         -2.46401       17.43882       -7.13007
S         -3.70719       18.54062       -7.74017
O         -3.13477       19.28385       -8.84880
O         -4.94658       17.80705       -7.90987
C         -3.88176       19.65161       -6.37512
C         -4.47216       21.07225       -3.61239
C         -4.08222       22.09289       -4.39133
H         -1.85147       -3.22647        2.33592
H         -1.25479       -3.01779       -0.21660
H         -1.13178        3.03542       -2.12758
H         -1.09951        5.58467        1.88942
H          0.69658        9.76106        1.59495
H         -0.67124        9.36548        2.64754
H          0.91486       11.21536        3.69432
H          0.64082       13.44308        2.55051
H         -0.25728       13.56706        0.20155
H         -1.36280       13.63110        1.58651
H         -3.53192       15.97647        2.26081
H         -5.02364       15.49029        1.42731
H         -3.92337       16.64683        0.68600
H         -0.41777       17.28377        0.23705
H         -0.62859       15.58288       -0.16191
H         -1.55100       16.34688        1.17466
H         -3.79882       16.10141       -6.16603
H         -2.13414       16.08636       -5.52870
H         -2.25549       16.72128       -7.92885
H         -1.56269       18.03138       -6.94363
H         -4.84383       20.15100       -6.52873
H         -3.06937       20.37750       -6.48242
H         -5.07962       21.30819       -2.73989
H         -3.46209       21.99389       -5.27133
H         -4.36287       23.11491       -4.15123
