120

C          2.43297        2.74329       -0.69694
C          1.39307        3.31384       -1.34402
C          0.84064        2.74468       -2.52817
N          0.39599        2.26957       -3.48900
C          0.89453        4.60061       -0.98432
N          0.49564        5.66415       -0.74655
C          3.24225        1.60383       -1.18090
C          4.57415        1.82564       -0.78733
C          5.59453        0.92971       -1.04059
C          5.24780       -0.29767       -1.61822
C          3.88609       -0.57524       -1.94852
C          2.89133        0.40187       -1.76687
C          3.54256       -1.85475       -2.40244
C          4.51472       -2.84553       -2.54063
C          5.84873       -2.56038       -2.26204
C          6.21543       -1.29218       -1.81033
C          4.64261        2.99131        0.12249
O          5.63149        3.49751        0.60624
C          3.20424        3.30931        0.40614
C          2.90204        3.55578        1.68975
C          1.63866        3.25238        2.27116
S          0.55336        4.52257        2.55421
C          1.15351        2.05989        2.79488
C          1.87474        0.77798        2.75518
O          2.96170        0.61519        2.21569
C          1.14642       -0.28850        3.42505
C          1.50948       -1.61343        3.54471
N          0.58764       -2.22988        4.35005
C          0.72593       -3.58168        4.86798
C          1.53350       -3.58950        6.15546
C         -0.42178       -1.35206        4.65763
C         -0.10371       -0.12818        4.09707
C         -0.84405        1.12857        4.16128
O         -1.91167        1.24433        4.75226
C         -0.15109        2.22283        3.44441
C         -0.63593        3.51432        3.28928
C         -1.86210        4.09572        3.73023
C         -2.40973        5.14064        3.09042
C         -3.55913        5.82377        3.56490
S         -4.58853        6.48662        2.37468
C         -4.01511        6.13702        4.83623
C         -3.29011        5.87589        6.09058
O         -2.10074        5.59958        6.17857
C         -4.14817        6.01429        7.25179
C         -3.87139        5.65019        8.55136
N         -4.95609        5.98461        9.31641
C         -5.03401        5.79599       10.75424
C         -4.47196        6.99323       11.49828
C         -5.93079        6.54306        8.52810
C         -5.45970        6.57074        7.22951
C         -6.11866        7.06086        6.02495
O         -7.19728        7.64091        6.03898
C         -5.34541        6.74971        4.80388
C         -5.78152        6.97275        3.50496
C         -6.99409        7.56414        3.04655
C         -7.57131        7.21357        1.88612
C         -8.77353        7.82277        1.43967
C         -9.57276        8.79456        2.04602
C        -10.66022        9.14507        1.23037
C        -10.65419        8.43581        0.05415
S         -9.41551        7.34950       -0.11104
C        -11.74284        8.85272       -0.72878
C        -12.44490        9.81609       -0.04460
C        -11.79530       10.05981        1.24525
C        -12.14360       10.92465        2.21757
C        -11.39876       11.05345        3.42035
N        -10.79390       11.16597        4.40654
C        -13.29368       11.75937        2.07464
N        -14.23083       12.44398        1.99030
C        -13.54796       10.27139       -0.79582
C        -13.64018        9.62922       -2.04146
S        -12.31032        8.49498       -2.23749
C        -14.59757        9.81863       -3.10524
C        -14.92896        8.77372       -3.89307
C        -15.83076        8.89818       -5.00467
C        -16.49115       10.16611       -5.33145
C        -16.31425       11.30284       -4.66028
S        -15.25404       11.44586       -3.29025
C        -17.28994        9.91892       -6.46360
C        -17.14636        8.60804       -6.85208
C        -17.94760        8.27230       -7.95513
C        -18.65760        9.38563       -8.38216
S        -18.34681       10.79274       -7.41572
C        -16.21483        7.97766       -5.94074
C        -15.78515        6.59590       -5.98757
C        -15.66822        5.85445       -7.09704
H          6.60410        1.14273       -0.70162
H          1.85683        0.17397       -2.00688
H          2.50596       -2.10416       -2.62017
H          4.22729       -3.84396       -2.85993
H          6.60447       -3.33298       -2.37768
H          7.26104       -1.09851       -1.57948
H          3.70212        3.79762        2.38936
H          2.37332       -2.14441        3.16326
H          1.22085       -4.18413        4.09783
H         -0.27710       -3.99064        5.02745
H          2.53813       -3.18351        5.99128
H          1.63616       -4.60740        6.54162
H          1.05247       -2.97534        6.92445
H         -1.26355       -1.65249        5.27213
H         -2.32113        3.68077        4.62391
H         -1.99004        5.49473        2.15046
H         -2.98914        5.19002        8.98017
H         -4.47145        4.88800       11.00012
H         -6.08324        5.62388       11.01533
H         -3.42336        7.16574       11.23138
H         -4.52821        6.83312       12.57850
H         -5.02962        7.90353       11.25390
H         -6.87340        6.87755        8.94454
H         -7.45020        8.30586        3.69525
H         -7.12908        6.45383        1.24505
H         -9.34596        9.21846        3.01514
H        -14.25667       11.02914       -0.48199
H        -14.51023        7.78701       -3.72911
H        -16.83401       12.20643       -4.96289
H        -18.02341        7.29885       -8.42054
H        -19.35241        9.45010       -9.20760
H        -15.51067        6.13717       -5.04006
H        -15.87261        6.24930       -8.08618
H        -15.32691        4.82548       -7.04029
