95

C         -3.88063        3.13315        1.96499
C         -2.92643        2.32696        1.44578
C         -1.88115        1.75347        2.22271
N         -1.02051        1.27886        2.84742
C         -2.86218        1.95432        0.06456
N         -2.79565        1.64100       -1.04847
C         -4.05069        3.48098        3.41669
C         -5.25543        4.16647        3.57251
C         -5.73731        4.65658        4.78353
C         -4.95851        4.43770        5.93800
C         -3.74881        3.74288        5.80260
C         -3.27419        3.26250        4.55227
S         -2.96060        3.57209        7.33385
C         -4.19238        4.40433        8.13275
C         -5.19485        4.82421        7.30031
Br        -4.18449        4.72106        9.97917
C         -5.94075        4.32863        2.29082
O         -7.03543        4.83816        2.17453
C         -5.01928        3.76424        1.24255
C         -5.21863        3.93888       -0.07612
C         -6.34511        4.58435       -0.71277
C         -6.45875        4.71812       -2.04320
C         -7.60109        5.36455       -2.58293
O         -8.32980        6.30077       -1.88371
C         -9.38184        6.75676       -2.64423
C         -9.30570        6.10272       -3.86239
C         -8.20365        5.23555       -3.81896
O         -7.79377        4.41310       -4.80026
O        -10.11877        6.27825       -4.92115
C        -10.31604        7.70831       -2.16022
C         -9.95448        8.57458       -1.20261
C        -10.86898        9.55298       -0.66818
C        -10.70016       10.12601        0.53381
C        -11.60473       11.10364        1.04345
S        -12.37594       12.24923        0.00080
C        -13.24934       13.00714        1.27976
C        -12.89166       12.42947        2.47828
C        -11.97380       11.36735        2.34505
S        -11.48237       10.56692        3.83014
C        -12.45616       11.56562        4.91740
O        -12.48156       11.40125        6.12793
S        -13.39265       12.82499        4.11529
C        -14.15285       14.04892        0.93133
C        -15.26446       14.26731        1.65148
C        -16.20205       15.23658        1.23892
S        -17.54596       14.73093        0.30007
C        -18.19875       16.32083        0.19392
C        -17.42822       17.18631        0.93502
C        -16.29809       16.57745        1.51372
S        -15.25287       17.59577        2.48068
C        -16.20335       19.07492        2.27248
O        -15.88608       20.13866        2.78326
S        -17.64994       18.89215        1.26270
C        -19.39002       16.52024       -0.54843
C        -19.32245       16.81856       -1.85389
C        -20.47711       17.07069       -2.67781
C        -21.52392       16.28485       -2.96811
C        -21.96574       14.91822       -2.62816
C        -21.20132       13.84795       -2.29698
C        -21.74288       12.61101       -1.83863
N        -22.17789       11.61606       -1.42966
C        -19.78834       13.82508       -2.47784
N        -18.65157       13.72877       -2.69020
C        -23.43280       14.85401       -2.95484
C        -23.79963       16.04916       -3.58101
C        -22.66783       16.97586       -3.64712
O        -22.69288       18.08811       -4.13292
C        -25.05444       16.30590       -4.12383
C        -26.00581       15.26621       -4.08822
C        -25.65707       14.05976       -3.46474
C        -24.38530       13.84255       -2.87134
S        -26.95059       12.91691       -3.55853
C        -27.91835       13.98807       -4.43233
C        -27.33340       15.20915       -4.63369
Br       -29.62099       13.54225       -5.07234
H         -6.68181        5.19307        4.82731
H         -2.32228        2.74787        4.53554
H         -6.06448        5.37774        7.63232
H         -4.48690        3.59544       -0.79658
H         -7.15200        4.95811       -0.08460
H         -5.71107        4.33825       -2.73275
H         -8.41805        4.50206       -5.54472
H        -10.69481        7.04904       -4.77742
H        -11.32889        7.68886       -2.54778
H         -8.93881        8.57168       -0.80642
H        -11.72085        9.80334       -1.29702
H         -9.88089        9.81065        1.17669
H        -13.96395       14.61831        0.02248
H        -15.52611       13.67685        2.51902
H        -20.33790       16.41370       -0.03075
H        -18.35895       16.96300       -2.34536
H        -20.46168       18.08449       -3.08967
H        -25.26825       17.25847       -4.60148
H        -24.19614       12.87491       -2.42430
H        -27.80424       16.02449       -5.16997
