95

C         -5.02869       -0.27317       -5.04910
C         -3.82513       -0.09600       -5.64759
C         -3.25394       -1.03697       -6.55135
N         -2.77621       -1.79714       -7.28929
C         -3.03352        1.07745       -5.47627
N         -2.38872        2.03434       -5.34489
C         -5.96601       -1.41973       -5.30003
C         -7.20619       -1.10778       -4.74337
C         -8.32909       -1.92830       -4.82207
C         -8.20083       -3.16672       -5.48659
C         -6.95409       -3.51004       -6.02335
C         -5.82437       -2.65165       -5.93870
S         -7.00600       -5.07043       -6.76349
C         -8.65375       -5.28378       -6.38336
C         -9.17023       -4.20145       -5.71149
C         -7.16026        0.17380       -4.02998
O         -8.10667        0.65574       -3.44379
C         -5.74590        0.68360       -4.15257
C         -5.28982        1.75899       -3.47981
C         -6.11204        2.62372       -2.70106
C         -6.80598        3.74321       -3.11619
C         -7.60312        4.33817       -2.08333
C         -7.39769        3.71221       -0.85758
S         -6.26436        2.42010       -1.00481
C         -8.08095        4.14206        0.28942
C         -9.02969        5.18167        0.22519
C         -9.21408        5.81204       -0.99672
C         -8.51429        5.40335       -2.13310
S        -10.34169        7.09151       -0.87830
C        -10.76930        6.72368        0.74829
C         -9.91519        5.73333        1.21991
C        -11.85691        7.47007        1.44918
C        -11.86097        7.71597        2.84357
C        -12.92926        8.43909        3.51283
N        -12.88860        8.58783        4.85546
C        -11.83245        8.10383        5.53731
C        -10.81056        7.44867        4.90232
N        -10.81792        7.25079        3.56787
F         -9.77365        6.96887        5.60229
F        -11.80336        8.28375        6.86475
C        -14.02533        9.00313        2.81636
C        -14.06979        8.75799        1.41338
C        -12.99013        7.95903        0.72608
N        -13.26189        7.78330       -0.58003
S        -14.63467        8.61195       -0.94280
N        -15.00926        9.19205        0.55188
C        -15.08748        9.85629        3.41777
C        -16.42619        9.99482        3.07529
C        -17.09801       11.07697        3.74760
C        -16.25927       11.68243        4.67284
S        -14.71032       10.95721        4.68417
C        -16.68336       12.77972        5.42754
C        -17.93019       13.37986        5.19361
C        -18.77306       12.77827        4.26542
C        -18.38703       11.61632        3.58442
S        -20.22645       13.67424        4.08005
C        -19.66374       14.96880        5.06652
C        -18.48573       14.60997        5.69439
C        -20.34541       16.21645        5.00334
C        -20.47942       17.12715        5.97626
C        -20.19140       17.22105        7.41431
C        -20.40357       16.25619        8.34360
C        -20.19335       16.46076        9.73571
N        -20.01222       16.62591       10.87427
C        -20.98917       14.99850        8.00978
N        -21.51050       13.98931        7.77628
C        -19.96076       18.67268        7.70798
C        -20.36680       19.41111        6.59210
C        -20.77723       18.51948        5.49926
O        -21.19634       18.87043        4.41585
C        -20.34929       20.79937        6.52189
C        -19.91645       21.50696        7.66397
C        -19.49297       20.77964        8.78493
C        -19.48732       19.35906        8.82064
S        -19.01089       21.83664       10.06309
C        -19.37451       23.23144        9.15429
C        -19.82954       22.92126        7.89507
H         -9.26967       -1.62400       -4.37098
H         -4.89241       -3.00001       -6.36751
H         -9.16844       -6.19217       -6.66752
H        -10.20162       -4.14960       -5.38294
H         -4.25150        2.06298       -3.51291
H         -6.79431        4.10191       -4.13839
H         -7.89855        3.64522        1.23999
H         -8.69849        5.90050       -3.08283
H         -9.93527        5.36577        2.23891
H        -16.90542        9.40895        2.29903
H        -16.00341       13.22492        6.15019
H        -19.06584       11.16747        2.86168
H        -17.93874       15.26444        6.36137
H        -20.67032       16.49779        3.99846
H        -20.66827       21.31529        5.62030
H        -19.12965       18.86535        9.71688
H        -19.23453       24.21491        9.58280
H        -20.10558       23.67486        7.16662
