75

C         -0.65280       -5.03326        5.31849
C          0.15165       -4.42924        4.36081
C         -0.21886       -3.11960        3.81958
O         -0.84017       -2.28221        4.45804
O          0.10951       -2.90746        2.51892
C          1.27341       -5.28635        4.04245
C          1.19272       -6.50289        4.69502
S         -0.13344       -6.59606        5.76039
C          2.44003       -4.99041        3.13342
C          2.95716       -3.72331        2.87686
C          3.97945       -3.78803        1.90657
C          4.24329       -5.08647        1.53761
S          3.30177       -6.23096        2.27960
C          5.26209       -5.08635        0.56715
C          5.61963       -3.78932        0.28984
C          4.86140       -2.88904        1.16221
C          4.97794       -1.55456        1.29039
C          4.19622       -0.81852        2.21949
N          3.55843       -0.22813        2.98798
C          5.91470       -0.81394        0.52212
N          6.67425       -0.21311       -0.11057
C          6.56504       -3.73194       -0.75895
C          6.92110       -5.01068       -1.21308
S          6.12534       -6.23585       -0.24672
C          7.85890       -5.41929       -2.29320
C          7.70878       -6.57724       -3.09499
C          8.69059       -6.98755       -4.06523
N          8.48435       -8.14219       -4.74445
C          7.39138       -8.90580       -4.49786
C          6.44202       -8.49011       -3.61236
N          6.59218       -7.32566       -2.93651
C          5.25170       -9.23252       -3.32863
N          4.28944       -9.84453       -3.11232
C          7.31487      -10.15358       -5.19586
N          7.22900      -11.17626       -5.73839
C          9.86181       -6.23081       -4.33753
C         10.01583       -5.01993       -3.59813
C          9.00437       -4.61501       -2.55429
N          9.33721       -3.46599       -1.94020
S         10.72924       -2.90958       -2.62761
N         11.02090       -4.13157       -3.69822
C         10.91316       -6.61930       -5.32141
C         11.76629       -5.82306       -6.10298
C         12.62036       -6.60150       -6.92177
C         12.40077       -7.94293       -6.73288
S         11.26935       -8.31286       -5.58852
C         13.26585       -8.67780       -7.56506
C         14.04569       -7.80662       -8.28780
C         13.68900       -6.43137       -7.91302
C         14.23187       -5.28065       -8.35545
C         13.78846       -4.01556       -7.88169
N         13.41907       -2.98638       -7.49300
C         15.27802       -5.27333       -9.31689
N         16.12859       -5.27795      -10.10559
C         14.93331       -8.50386       -9.14540
C         14.79137       -9.89048       -9.01338
S         13.56198      -10.28323       -7.83638
C         15.52448      -10.94872       -9.69490
C         16.86022      -11.01228      -10.09478
C         17.91057      -10.01167       -9.90233
O         18.83312       -9.86770      -10.69213
O         17.85203       -9.29658       -8.75209
C         17.13393      -12.24769      -10.79437
C         16.04833      -13.08148      -10.87767
S         14.67500      -12.38634      -10.16582
H         -1.55616       -4.63665        5.76605
H          0.47228       -3.69808        2.08069
H          1.88171       -7.33609        4.64816
H          2.60210       -2.82239        3.36311
H          6.96892       -2.82223       -1.18702
H         11.75266       -4.74009       -6.06545
H         15.64506       -8.04890       -9.82563
H         17.17100       -9.62019       -8.13647
H         18.10639      -12.50433      -11.20273
H         15.99674      -14.06121      -11.33436
