150

C         -7.98483       -1.87260       -2.01693
O         -8.48492       -1.19097       -2.88373
C         -8.67514       -2.87056       -1.20879
C         -7.74439       -3.77693       -0.66726
C         -8.22135       -4.79562        0.14388
C         -9.60173       -4.87035        0.38709
C        -10.49714       -3.93522       -0.14075
C        -10.03058       -2.91566       -0.94943
F        -10.86352       -1.97953       -1.41944
F        -11.80259       -4.01814        0.14824
F        -10.06361       -5.86007        1.16239
C         -6.37633       -3.34462       -1.09129
C         -5.25414       -4.10017       -1.13421
C         -5.23192       -5.45351       -0.69741
N         -5.24296       -6.55544       -0.33531
C         -4.03446       -3.61690       -1.68952
N         -3.04531       -3.20988       -2.13756
C         -6.54187       -1.97518       -1.62081
C         -5.70211       -0.92663       -1.55410
C         -6.10818        0.41786       -1.81545
C         -7.30638        1.05345       -1.56344
C         -7.38689        2.43116       -1.96594
C         -8.44340        3.38133       -1.84433
C         -9.73766        3.01131       -1.13219
C         -9.99848        2.16507       -0.05330
C        -11.38775        2.07564        0.31445
C        -12.19182        2.86482       -0.47299
S        -11.26794        3.62978       -1.68207
C        -13.67348        3.08607       -0.43814
Cl       -11.93398        1.06891        1.59100
C         -8.24801        4.67769       -2.38972
C         -7.10307        5.01474       -3.13467
C         -6.03529        4.07432       -3.21287
C         -6.18628        2.80644       -2.60015
S         -5.00544        1.53869       -2.45140
C         -4.76409        4.42983       -3.93950
C         -3.88406        3.64984       -4.68742
C         -2.83238        4.39157       -5.31160
C         -2.96089        5.74333       -5.09939
S         -4.09936        6.03354       -3.86126
C         -2.23485        6.87259       -5.75466
Cl        -1.62952        3.64877       -6.27666
C         -7.27006        6.32992       -3.72522
C         -8.35341        7.03368       -3.25843
S         -9.25918        6.07047       -2.21715
C         -8.71873        8.39109       -3.56777
C         -8.40211        9.09098       -4.70160
C         -8.85598       10.46688       -4.72290
C         -8.72908       11.47501       -5.71589
C         -8.03963       11.17077       -7.01842
C         -8.33831       11.57053       -8.31849
C         -7.43066       11.07643       -9.30542
C         -6.47692       10.24693       -8.76590
S         -6.56451       10.26233       -7.06244
C         -5.40408        9.46796       -9.45365
Cl        -7.56254       11.49575      -10.96032
C         -9.26844       12.76299       -5.47726
C         -9.90404       13.09636       -4.26521
C        -10.03750       12.08700       -3.26331
C         -9.53125       10.78031       -3.52862
S         -9.65671        9.35273       -2.54948
C        -10.73482       12.40929       -1.95779
C        -11.78789       13.27547       -1.66661
C        -12.20076       13.26542       -0.29231
C        -11.46647       12.38760        0.46834
S        -10.20386       11.71681       -0.45586
C        -11.60805       12.02338        1.91251
Cl       -13.47783       14.24978        0.28670
C        -10.29182       14.49542       -4.28303
C        -10.05880       15.14971       -5.47204
S         -9.23580       14.12935       -6.53994
C        -10.41731       16.50883       -5.80824
C        -11.45786       17.24858       -5.29076
C        -11.50662       18.62212       -5.75079
C        -12.30241       19.73051       -5.34583
C        -13.27351       19.60114       -4.20271
C        -13.23947       18.81701       -3.05445
C        -14.33483       19.04034       -2.15885
C        -15.20971       19.99301       -2.62523
S        -14.77994       20.46811       -4.20573
C        -16.41454       20.58028       -1.95835
Cl       -14.47456       18.21054       -0.66731
C        -12.12142       20.97353       -6.00026
C        -11.36883       21.10033       -7.17517
C        -10.53372       20.01479       -7.54911
C        -10.57578       18.81543       -6.79153
S         -9.53687       17.43857       -6.91917
C         -9.59074       20.15654       -8.70901
C         -9.13966       19.22299       -9.63739
C         -8.26234       19.76261      -10.62970
C         -8.09281       21.11992      -10.49002
S         -8.78669       21.66002       -9.02563
C         -7.39944       22.09706      -11.38327
Cl        -7.57156       18.78889      -11.85745
C        -11.66760       22.37438       -7.80711
C        -12.42130       23.23325       -7.03783
S        -12.59594       22.55469       -5.48303
C        -12.85811       24.55955       -7.32241
C        -14.00928       25.08844       -6.87664
C        -14.11329       26.58038       -6.81012
O        -13.50619       27.38887       -7.47433
C        -15.03466       26.85699       -5.69527
C        -15.56487       25.65252       -5.19682
C        -15.14304       24.56389       -6.11346
C        -15.85183       23.44220       -6.39467
C        -17.00350       23.07184       -5.65422
N        -17.93700       22.78824       -5.01737
C        -15.54544       22.61993       -7.50985
N        -15.32092       21.94905       -8.44738
C        -16.30702       25.67327       -4.02609
C        -16.55367       26.90856       -3.41849
C        -16.07010       28.10252       -3.96196
C        -15.29254       28.08011       -5.10916
F        -14.78407       29.21489       -5.60481
F        -16.33558       29.26688       -3.35375
F        -17.26281       26.93536       -2.28225
H         -7.58348       -5.53356        0.61737
H         -4.68008       -1.05045       -1.20137
H         -8.14294        0.53143       -1.12508
H         -9.23702        1.60828        0.47556
H        -14.20482        2.23241       -0.00507
H        -14.07425        3.23009       -1.44851
H        -13.92663        3.97588        0.15029
H         -3.98833        2.58273       -4.83160
H         -1.15097        6.75013       -5.67130
H         -2.50068        7.84571       -5.32867
H         -2.49030        6.90748       -6.82156
H         -6.57112        6.77970       -4.41628
H         -7.85622        8.60946       -5.49823
H         -9.17053       12.21174       -8.57844
H         -5.77684        9.00637      -10.37529
H         -5.01662        8.65826       -8.82495
H         -4.57019       10.12715       -9.71296
H        -12.28258       13.89700       -2.39976
H        -11.76161       12.91551        2.52801
H        -10.71720       11.51363        2.29672
H        -12.46218       11.35277        2.06315
H        -10.73731       15.01196       -3.44525
H        -12.14707       16.82560       -4.57237
H        -12.44583       18.12145       -2.82069
H        -16.98846       19.81254       -1.42928
H        -17.09231       21.05898       -2.67250
H        -16.11272       21.33982       -1.22708
H         -9.42678       18.17941       -9.63497
H         -6.74878       21.60119      -12.11023
H         -6.78082       22.79506      -10.81013
H         -8.13699       22.68084      -11.94753
H        -11.32888       22.65583       -8.79666
H        -12.14490       25.19797       -7.84623
H        -16.68732       24.77659       -3.54901
