90

C        -12.48297      -12.60686       -6.36085
N        -11.34701      -12.02315       -6.81734
N        -10.04067      -12.34777       -6.31415
C         -9.82202      -13.26414       -5.33102
C        -10.98009      -13.90437       -4.84159
C        -12.29955      -13.56765       -5.36032
N        -13.21193      -14.31205       -4.72392
O        -12.50399      -15.10193       -3.83869
N        -11.14751      -14.86154       -3.91354
C         -8.46619      -13.49650       -4.88082
S         -8.14506      -13.96730       -3.25516
C         -6.44435      -14.03016       -3.47729
C         -6.12459      -13.68675       -4.76527
C         -7.26433      -13.36943       -5.50355
C         -6.85751      -12.97788       -6.81192
C         -5.46532      -13.02300       -7.00717
C         -4.70961      -12.66828       -8.19566
O         -3.60106      -13.08963       -8.50926
O         -5.42266      -11.76347       -8.92073
C         -4.78844      -11.35470      -10.12973
S         -4.54097      -13.56814       -5.63314
C         -5.54363      -14.38507       -2.42397
N         -5.99252      -14.70154       -1.15487
C         -4.90819      -14.98766       -0.38080
C         -4.52680      -15.37481        0.92173
C         -3.14483      -15.44036        0.87226
N         -2.70657      -15.14263       -0.39383
C         -3.80068      -14.85518       -1.14252
C         -4.16296      -14.47420       -2.44284
C         -2.19812      -15.80904        1.84485
C         -0.96363      -15.28121        1.87168
C          0.00287      -15.70654        2.82278
S         -0.49088      -16.14479        4.39802
C          1.38444      -15.74813        2.72518
C          2.16708      -15.23772        1.58174
O          1.68558      -14.82724        0.53313
C          3.59578      -15.23597        1.86363
C          4.61298      -14.65109        1.13572
N          5.78448      -14.84177        1.82406
C          7.08120      -14.31586        1.43076
C          7.35680      -12.95084        2.03928
C          5.54648      -15.59450        2.94615
C          4.19002      -15.84190        3.01141
C          3.44820      -16.54812        4.04760
O          3.98124      -17.20155        4.93425
C          1.99298      -16.36575        3.90706
C          1.04880      -16.72245        4.86478
C          1.21981      -17.31423        6.15410
C          0.36035      -18.13561        6.78170
C         -0.90284      -18.67528        6.32165
C         -1.15613      -19.44322        5.25175
C         -2.60405      -19.59894        4.86615
O         -3.58834      -19.38497        5.53550
C         -2.59142      -20.00633        3.44989
C         -1.27005      -20.19535        3.00568
C         -0.34637      -20.02914        4.17025
C          0.91825      -20.51620        4.24310
C          1.70641      -20.50228        5.43093
N          2.38350      -20.53393        6.37295
C          1.54582      -21.18198        3.15147
N          2.05476      -21.72601        2.26140
C         -1.06415      -20.45659        1.65814
C         -2.16954      -20.56723        0.80066
C         -3.47450      -20.39979        1.28451
C         -3.70281      -20.10483        2.62342
Br        -4.93324      -20.54849        0.09205
H        -13.42926      -12.31140       -6.78564
H         -7.53582      -12.66935       -7.59961
H         -5.41421      -10.58436      -10.58697
H         -4.72069      -12.20330      -10.81632
H         -3.79832      -10.92766       -9.93788
H         -6.94846      -14.72554       -0.82399
H         -5.15842      -15.57318        1.77628
H         -1.76130      -15.13714       -0.75814
H         -3.48013      -14.29712       -3.25735
H         -2.53212      -16.53906        2.57633
H         -0.65948      -14.53429        1.14186
H          4.58453      -14.08818        0.21006
H          7.09936      -14.26052        0.33707
H          7.84122      -15.03928        1.74486
H          6.58936      -12.22463        1.75060
H          8.32727      -12.57380        1.70187
H          7.37300      -13.00068        3.13337
H          6.34517      -15.86478        3.62657
H          2.14229      -17.07102        6.68143
H          0.61937      -18.44359        7.79395
H         -1.74371      -18.34077        6.93320
H         -0.07724      -20.56437        1.22168
H         -2.00039      -20.77723       -0.25482
H         -4.70266      -19.93764        3.01214
