99

C        -15.42632        4.02440        2.44330
O        -15.22619        2.90129        2.85680
C        -14.50830        5.14906        2.66071
C        -15.01832        6.32624        2.09305
C        -14.33811        7.51508        2.32865
C        -13.19829        7.50590        3.14509
C        -12.73850        6.31486        3.72240
C        -13.37375        5.10829        3.46040
Br       -11.29810        6.37495        4.94480
C        -16.30647        6.00933        1.40660
C        -16.96520        6.82477        0.54460
C        -16.52275        8.13727        0.22396
N        -16.17300        9.22348       -0.02341
C        -18.16080        6.43697       -0.12860
N        -19.15161        6.15277       -0.65789
C        -16.64720        4.60775        1.76945
C        -17.83196        3.96940        1.72507
C        -18.11248        2.59945        2.12134
C        -17.64667        1.49019        1.52545
C        -17.87584        0.14233        1.99495
C        -17.06533       -0.76334        1.42392
C        -16.12857       -0.17259        0.47931
S        -16.62009        1.48011        0.11434
C        -14.96068       -0.70510        0.07339
C        -14.42170       -2.00077        0.44810
C        -13.08200       -2.05235        0.36865
C        -12.49780       -0.78928       -0.04387
S        -13.71784        0.21383       -0.78510
C        -11.24039       -0.42057        0.24698
C        -10.73503        0.89957        0.05720
S        -10.93818        2.07018        1.29706
C        -10.18137        3.33486        0.39407
C         -9.70950        2.83585       -0.81198
C         -9.98772        1.42499       -0.97720
C         -9.50110        0.70540       -2.19956
C         -9.98400        1.37036       -3.47777
S         -9.73916        3.15002       -3.49856
O        -11.04708        3.77855       -3.53917
O         -8.76353        3.44214       -4.53616
C         -8.97691        3.54535       -1.91093
C        -10.11364        4.61969        1.01507
C        -10.16251        5.77704        0.34072
C        -10.02658        7.05767        1.00428
C         -9.07078        7.96357        0.75772
C         -8.95792        9.22331        1.44867
C         -7.86978        9.92556        1.10647
C         -7.02732        9.26433        0.12556
S         -7.77203        7.75069       -0.38876
C         -5.83523        9.70747       -0.31653
C         -5.17914       10.92949        0.10711
C         -3.97384       11.11903       -0.44329
C         -3.57751       10.06282       -1.34322
S         -4.82531        8.85224       -1.48089
C         -2.39553       10.04248       -1.97434
C         -1.89710        9.04266       -2.89192
C         -1.69727        7.73386       -2.68216
C         -1.36796        6.87889       -3.87213
O         -0.99219        7.23654       -4.96915
C         -1.64115        5.49463       -3.45648
C         -2.10230        5.46454       -2.12920
C         -1.91674        6.82525       -1.54582
C         -1.69662        7.06211       -0.22914
C         -1.89731        6.07276        0.77750
N         -2.06772        5.26698        1.59533
C         -1.11623        8.27143        0.25389
N         -0.59479        9.21223        0.68895
C         -2.54196        4.25660       -1.60665
C         -2.38620        3.09073       -2.36879
C         -1.83078        3.14312       -3.65591
C         -1.48168        4.35897       -4.23364
Br        -1.53484        1.53518       -4.60373
H        -14.67187        8.47626        1.95510
H        -12.68962        8.44710        3.34722
H        -13.04631        4.17395        3.90653
H        -18.73551        4.47960        1.40513
H        -18.77044        2.50355        2.98269
H        -18.58241       -0.08815        2.78004
H        -17.04725       -1.80479        1.71014
H        -15.03257       -2.81499        0.81262
H        -12.49077       -2.90725        0.66551
H        -10.58508       -1.11710        0.75995
H         -9.80863       -0.34579       -2.19237
H         -8.40288        0.70313       -2.17574
H        -11.05438        1.19215       -3.62036
H         -9.44810        0.95449       -4.33714
H         -8.96137        4.63065       -1.82991
H         -7.93847        3.19835       -1.96028
H        -10.01925        4.64637        2.09975
H        -10.29604        5.82359       -0.73567
H        -10.75862        7.26309        1.77678
H         -9.68149        9.55972        2.17889
H         -7.63710       10.88780        1.53861
H         -5.61060       11.62572        0.81143
H         -3.34391       11.97221       -0.23060
H         -1.72033       10.88818       -1.83868
H         -1.68790        9.44893       -3.88472
H         -2.98597        4.16760       -0.62068
H         -2.68149        2.13609       -1.93663
H         -1.07944        4.42714       -5.23929
