122

C         -3.81460       -4.52825       -2.60689
C         -4.10524       -3.24040       -3.06636
F         -4.38239       -2.28417       -2.16968
C         -4.08663       -2.92632       -4.43265
F         -4.36303       -1.67800       -4.83208
C         -3.74602       -3.88098       -5.38258
C         -3.43962       -5.14596       -4.91135
C         -3.49787       -5.49886       -3.54420
C         -3.11168       -6.92704       -3.43109
C         -3.55397       -7.81606       -2.51142
C         -4.30543       -7.41562       -1.36934
N         -4.89746       -7.05570       -0.43756
C         -3.39545       -9.22357       -2.69438
N         -3.32297      -10.36982       -2.85574
C         -2.39443       -7.24085       -4.66863
C         -2.86328       -6.25608       -5.69899
O         -2.71976       -6.29608       -6.90104
C         -1.24575       -7.89420       -4.91338
C         -0.31353       -8.49163       -3.93782
C          0.45516       -9.60102       -4.32525
C          1.43512      -10.07766       -3.45743
C          1.64509       -9.48146       -2.19706
C          0.90463       -8.38224       -1.80868
C         -0.05022       -7.87315       -2.69435
C          2.73358      -10.15000       -1.51997
C          3.25430      -11.15974       -2.35411
C          2.48502      -11.17629       -3.68599
C          1.85048      -12.57328       -3.93011
C          0.83931      -13.04011       -2.87838
C          3.42716      -10.78062       -4.86605
C          4.03591       -9.37233       -4.79866
C          4.31005      -11.96836       -1.93703
C          4.86338      -11.74502       -0.66981
C          4.34852      -10.71793        0.15039
C          3.27594       -9.92281       -0.26848
C          5.94429      -12.57438       -0.17176
C          5.81144      -13.76369        0.70907
N          6.91697      -14.29485        1.15288
C          7.87110      -13.49481        0.61221
C          7.27492      -12.47438       -0.21972
C          8.36117      -11.61422       -0.78168
S          8.25280      -10.48212       -1.99164
C          9.56762      -12.12179       -0.04367
C          9.18352      -13.30135        0.70387
N         10.24048      -13.81051        1.38475
C         11.19049      -12.96305        1.10798
C         10.84110      -11.81628        0.22094
C         11.69125      -10.67217       -0.08418
C         13.07485      -10.83301       -0.24921
C         13.86720       -9.70053       -0.41207
C         13.30336       -8.40909       -0.44263
C         11.94226       -8.23616       -0.29429
C         11.14697       -9.36891       -0.09464
C         14.35730       -7.42933       -0.57004
C         15.60260       -8.08552       -0.64643
C         15.39568       -9.60003       -0.49466
C         16.04553      -10.08663        0.83639
C         15.48894       -9.45725        2.11912
C         15.97089      -10.40034       -1.68965
C         15.34054      -10.09857       -3.04883
C         16.79409       -7.36963       -0.75073
C         16.74297       -5.96901       -0.73519
C         15.49097       -5.33388       -0.56738
C         14.29367       -6.05198       -0.53558
C         18.00400       -5.19833       -0.77897
C         18.18542       -3.95822       -1.26258
C         19.38135       -3.17441       -0.81042
O         20.45671       -3.58961       -0.43703
C         18.93146       -1.76569       -0.80798
C         17.62416       -1.67002       -1.33492
C         16.94584       -0.46548       -1.24396
C         17.61625        0.63139       -0.69266
C         18.93701        0.52754       -0.23655
C         19.61478       -0.68459       -0.27594
F         19.55189        1.60371        0.27070
F         16.97006        1.80101       -0.59612
C         17.26400       -3.00226       -1.88508
C         16.42715       -3.24682       -2.92280
C         16.40904       -4.50364       -3.60071
N         16.41146       -5.50395       -4.18894
C         15.56278       -2.25334       -3.45037
N         14.83704       -1.42945       -3.84483
H         -3.81372       -4.71024       -1.53777
H         -3.68208       -3.62919       -6.43507
H         -0.85370       -7.88271       -5.93301
H          0.32102      -10.05697       -5.30263
H          1.09153       -7.89042       -0.85993
H         -0.54877       -6.95096       -2.40890
H          2.64410      -13.33079       -3.98417
H          1.34786      -12.58717       -4.90505
H          1.28691      -13.11630       -1.88268
H          0.46197      -14.03447       -3.14207
H         -0.02389      -12.37039       -2.81962
H          2.87896      -10.85106       -5.81498
H          4.25318      -11.49990       -4.93360
H          3.28371       -8.60137       -4.99836
H          4.81507       -9.26213       -5.56072
H          4.49541       -9.16050       -3.82914
H          4.68873      -12.75757       -2.57969
H          4.77721      -10.52894        1.13302
H          2.88252       -9.14663        0.37889
H          4.80754      -14.14312        0.95210
H         12.21302      -13.04768        1.50714
H         13.53898      -11.81457       -0.22459
H         11.49340       -7.24867       -0.29540
H         10.08703       -9.20841        0.08810
H         17.12567       -9.89219        0.80900
H         15.93019      -11.17442        0.92584
H         15.56651       -8.36595        2.11003
H         16.05017       -9.81830        2.98673
H         14.43987       -9.72617        2.27873
H         15.85198      -11.47586       -1.50208
H         17.05094      -10.22097       -1.76642
H         14.30174      -10.44135       -3.09177
H         15.88804      -10.62496       -3.83771
H         15.36345       -9.03084       -3.28357
H         17.74276       -7.89463       -0.81276
H         15.41994       -4.25805       -0.43970
H         13.34622       -5.53263       -0.43978
H         18.83687       -5.68252       -0.26649
H         15.91722       -0.33199       -1.56047
H         20.62165       -0.77802        0.11514
