100

N         -1.38970       -0.16005       -0.67616
C         -1.34455       -0.23555       -2.01410
O         -2.00411        0.38366       -2.82405
C         -0.32757       -1.22930       -2.35357
C          0.19548       -1.71685       -1.21788
C         -0.50249       -1.00897       -0.11354
O         -0.32570       -1.14708        1.08279
C          1.25029       -2.73910       -1.10478
C          1.72667       -3.16097        0.14808
C          2.73313       -4.11843        0.20957
C          3.26747       -4.68280       -0.96389
C          2.81503       -4.28967       -2.20445
C          1.81103       -3.32008       -2.26924
C          4.27278       -5.65522       -0.61249
C          4.38302       -5.72412        0.78835
C          3.41865       -4.72432        1.44129
C          2.40019       -5.43857        2.37660
C          1.46954       -6.45255        1.70650
C          4.21543       -3.65100        2.24212
C          5.19803       -2.79755        1.43371
C          5.29031       -6.58671        1.39137
C          6.10391       -7.39388        0.58012
C          5.97912       -7.31124       -0.82387
C          5.06534       -6.44311       -1.42554
C          7.06969       -8.31497        1.19033
N          8.25326       -8.66452        0.56683
C          8.93013       -9.53143        1.37412
C         10.11532      -10.29774        1.44590
C         10.05025      -10.94272        2.67174
N          8.88981      -10.57749        3.31755
C          8.20773       -9.71915        2.50174
C          7.01532       -8.96546        2.41955
C         10.90128      -11.85263        3.33805
C         11.67646      -12.68938        2.63055
C         12.56961      -13.62781        3.30062
C         13.87680      -13.23146        3.60222
C         14.69848      -14.11128        4.28967
C         14.22711      -15.39375        4.64704
C         12.94428      -15.80356        4.31893
C         12.10966      -14.90865        3.64871
C         15.27404      -16.10853        5.33280
C         16.41795      -15.29776        5.41654
C         16.16027      -13.93455        4.73141
C         16.30957      -12.79594        5.78521
C         16.10392      -11.36281        5.29291
C         17.11995      -13.73717        3.52754
C         17.02828      -14.79082        2.42240
C         17.58040      -15.76589        6.03026
C         17.61971      -17.06668        6.57371
C         16.44721      -17.85208        6.47366
C         15.27974      -17.38407        5.85768
N         18.79824      -17.58259        7.19826
C         19.97868      -16.90507        7.36028
O         20.31747      -15.77463        7.04841
C         20.92247      -17.79696        8.04146
C         20.30127      -18.95281        8.26166
C         18.93942      -18.84009        7.72744
O         18.17245      -19.78542        7.80556
H         -1.99909        0.44690       -0.15625
H         -0.09915       -1.46982       -3.37671
H          1.33047       -2.76454        1.07811
H          3.22127       -4.71821       -3.11555
H          1.47541       -3.03265       -3.26222
H          1.76720       -4.68906        2.87003
H          2.93931       -5.95832        3.17971
H          0.83935       -5.98475        0.94394
H          0.79740       -6.89072        2.45269
H          2.02587       -7.27199        1.24248
H          4.78393       -4.14272        3.04273
H          3.51690       -2.96564        2.73965
H          5.92442       -3.40682        0.88778
H          5.76257       -2.14262        2.10645
H          4.67756       -2.15402        0.71756
H          5.37705       -6.61764        2.47293
H          6.58667       -7.93856       -1.47085
H          4.98652       -6.39448       -2.50551
H          8.60125       -8.34837       -0.32910
H         10.90811      -10.37119        0.71480
H          8.55063      -10.88518        4.21944
H          6.21864       -8.90956        3.14782
H         10.91608      -11.87391        4.42540
H         11.67828      -12.71704        1.54709
H         14.22785      -12.25329        3.29424
H         12.58740      -16.79623        4.57125
H         11.09780      -15.21250        3.39218
H         17.31622      -12.83729        6.22207
H         15.61300      -12.96734        6.61710
H         16.84325      -11.07961        4.53853
H         16.20706      -10.66372        6.12960
H         15.10640      -11.19881        4.88418
H         18.15733      -13.71509        3.88709
H         16.93446      -12.76526        3.05649
H         17.28360      -15.78981        2.78734
H         17.72951      -14.54406        1.61826
H         16.02814      -14.82676        1.98023
H         18.43592      -15.10094        6.06005
H         16.39764      -18.86148        6.87119
H         14.40573      -18.02464        5.79777
H         21.92656      -17.51809        8.29348
H         20.67718      -19.83943        8.73697
