127

C        -11.42497      -10.76591        5.63088
C        -12.13953      -11.62662        4.79575
C        -11.48515      -12.37610        3.80815
C        -10.09298      -12.33907        3.68287
C         -9.37511      -11.53538        4.55427
C        -10.04446      -10.69980        5.49100
C         -9.03699       -9.75783        6.09065
C         -9.14291       -9.05782        7.24265
C        -10.30742       -9.12254        8.07049
N        -11.24770       -9.17485        8.74455
C         -8.06577       -8.29089        7.74345
N         -7.17332       -7.65701        8.13590
C         -7.83221       -9.89734        5.22163
C         -7.91479      -11.25575        4.65360
C         -6.89601      -12.14368        4.54996
C         -5.57865      -11.81413        5.01575
N         -4.52561      -11.55891        5.43040
C         -7.09907      -13.49201        4.15580
N         -7.23627      -14.59945        3.84484
C         -7.06639       -8.88862        4.75311
C         -6.12392       -8.93632        3.62958
C         -4.84469       -8.55930        3.82415
C         -3.88243       -8.53183        2.75237
C         -4.21273       -8.93262        1.37862
C         -5.42024       -9.33730        0.98974
S         -6.78904       -9.41731        2.06381
C         -3.03775       -8.76344        0.61447
C         -2.03582       -8.27714        1.41824
C         -0.82295       -8.06918        0.74320
C         -0.96422       -8.42131       -0.59158
S         -2.56555       -8.98299       -0.97299
C         -2.57595       -8.13906        2.74929
C         -1.83864       -7.65582        3.88643
C         -1.24874       -6.45037        3.91832
C         -0.51371       -5.93439        5.07892
C         -0.54444       -4.55449        5.34043
C          0.15401       -4.06901        6.43612
C          0.91189       -4.94249        7.25168
C          0.96971       -6.29850        6.98854
C          0.25582       -6.78998        5.89603
C          1.56180       -4.18121        8.29008
C          1.22184       -2.82518        8.13542
C          0.30079       -2.62685        6.93098
C          0.96439       -1.70309        5.86945
C          2.29407       -2.18314        5.29518
C         -1.03332       -1.95778        7.36906
C         -1.87683       -2.69756        8.40263
C          1.69518       -1.86561        9.00869
C          2.51164       -2.26676       10.07032
C          2.87888       -3.62148       10.20306
C          2.39957       -4.58824        9.31359
C          3.02392       -1.28105       11.02369
C          2.32509       -0.19294       11.39154
C          2.78441        0.82041       12.32154
C          3.56167        0.47990       13.36908
C          4.02317        1.44829       14.32785
C          3.64729        2.86176       14.24011
C          2.86692        3.38360       13.29605
S          2.17941        2.44322       12.00629
C          4.26021        3.49871       15.33257
C          4.96335        2.57767       16.07196
C          5.62499        3.14764       17.17081
C          5.36481        4.50878       17.22885
S          4.34776        5.05485       15.93543
C          4.79922        1.28490       15.43391
C          5.38369        0.03750       15.88657
C          5.66082       -0.24157       17.16832
C          6.26944       -1.45725       17.65333
C          5.82512       -2.72126       17.52898
C          6.65000       -3.92165       17.82439
C          7.38669       -4.15076       18.93659
C          7.47916       -3.19133       19.98694
N          7.55444       -2.39984       20.83294
C          8.04250       -5.38933       19.17793
N          8.57898       -6.40004       19.37389
C          6.33500       -4.87999       16.71591
C          5.17028       -4.41767       16.03713
C          4.72248       -5.04710       14.88326
C          5.40493       -6.17725       14.43179
C          6.53169       -6.65304       15.11384
C          7.01409       -5.99783       16.25042
C          4.67040       -3.19950       16.73994
C          3.37696       -2.81692       16.85475
C          2.32495       -3.49301       16.17254
N          1.47970       -4.05751       15.61326
C          2.96406       -1.82171       17.78961
N          2.60843       -1.04190       18.57023
H        -11.98143      -10.15248        6.33025
H        -13.22297      -11.68710        4.89012
H        -12.07462      -12.98158        3.12266
H         -9.61276      -12.90139        2.88806
H         -7.19535       -7.87762        5.14074
H         -4.49639       -8.27021        4.81250
H         -5.59753       -9.61454       -0.04495
H          0.09551       -7.69509        1.17757
H         -0.21393       -8.38076       -1.36984
H         -1.81280       -8.32382        4.74454
H         -1.33074       -5.77592        3.06873
H         -1.09883       -3.87506        4.70028
H          1.55852       -6.97020        7.60348
H          0.31719       -7.85443        5.68019
H          1.12988       -0.70869        6.30658
H          0.27168       -1.55362        5.03087
H          3.02818       -2.39222        6.07812
H          2.71611       -1.40772        4.64699
H          2.16311       -3.08332        4.68797
H         -1.66284       -1.77869        6.48847
H         -0.81055       -0.96507        7.78580
H         -2.33595       -3.59225        7.97362
H         -2.68713       -2.04205        8.74310
H         -1.30066       -2.98478        9.28647
H          1.42413       -0.82552        8.86172
H          3.53086       -3.93796       11.01390
H          2.67632       -5.63017        9.43347
H          4.01194       -1.48614       11.42358
H          1.33312       -0.01535       10.97764
H          3.85734       -0.54967       13.52469
H          2.62526        4.44194       13.30384
H          6.24747        2.63217       17.88954
H          5.72139        5.21729       17.96270
H          5.59501       -0.70083       15.11527
H          5.46137        0.48828       17.95024
H          7.21675       -1.25296       18.15350
H          3.87498       -4.68373       14.31084
H          5.06378       -6.69011       13.53439
H          7.05096       -7.53443       14.74117
H          7.91931       -6.37297       16.71528
