112

C         -7.39887        6.16188        3.06167
C         -8.28563        6.93337        3.77583
C         -9.66462        7.18259        3.34012
O        -10.08270        6.81309        2.25666
C        -10.47738        7.83537        4.37209
C         -9.89733        8.32024        5.61641
C        -10.86354        8.70467        6.53161
S        -12.41565        8.70713        5.81359
C        -11.84078        8.09985        4.30615
C        -12.86038        7.94553        3.20819
F        -12.36760        7.52712        2.02371
F        -13.83514        7.06650        3.55793
F        -13.47803        9.13182        2.95605
C        -10.72904        9.09466        7.97641
F         -9.56761        8.67001        8.53172
F        -10.80419       10.43557        8.14874
F        -11.71425        8.54105        8.73416
C         -8.44913        8.36175        5.86590
O         -7.94655        9.14632        6.65613
C         -7.69770        7.45753        4.99539
C         -6.39834        6.99792        5.18811
S         -5.90994        6.00462        3.85317
C         -5.48438        7.18717        6.30327
S         -3.78563        7.20302        6.05936
C         -3.43326        7.38600        7.72215
C         -4.59523        7.44880        8.46214
C         -5.76904        7.34316        7.64827
C         -2.07591        7.45331        8.20377
C         -1.59228        7.05169        9.43298
C         -0.18773        7.27201        9.56320
C          0.36995        7.84501        8.43535
S         -0.82181        8.10684        7.24093
C          1.74392        8.21527        8.20120
S          2.94658        7.96214        9.39144
C          4.17794        8.64101        8.41758
C          3.68248        9.03218        7.19063
C          2.28881        8.78901        7.06678
C          5.49090        8.71119        8.94122
C          6.33393        9.67157        8.54453
C          7.64724        9.71755        9.05728
N          8.46340       10.71594        8.58031
C          9.68722       10.55799        9.15576
C         10.98224       11.11041        9.17475
C         11.68489       10.32597       10.07466
N         10.86134        9.34690       10.57738
C          9.63799        9.50101        9.99891
C          8.34539        8.94193        9.96906
C         13.01333       10.33867       10.54379
C         13.87232       11.26327       10.09931
C         15.21426       11.27134       10.54391
S         16.41544       11.87787        9.49508
C         17.66290       11.61509       10.63469
C         17.17238       11.04892       11.79276
C         15.76568       10.85173       11.73913
C         19.02737       11.95839       10.34894
C         20.16188       11.35989       10.85756
C         21.35231       11.96166       10.36208
C         21.09373       13.00272        9.49102
S         19.42200       13.24949        9.29817
C         22.04070       13.84465        8.81931
S         23.55330       14.15181        9.52997
C         24.05901       15.16819        8.24560
C         23.07478       15.25217        7.27633
C         21.90879       14.50141        7.61227
C         25.36230       15.73813        8.24060
C         26.01274       16.05334        9.37637
C         27.34646       16.56360        9.39050
C         28.33011       16.43799       10.37343
C         28.21068       15.68913       11.63587
O         27.26570       14.96816       11.91834
C         29.37180       15.87334       12.53539
C         30.59810       16.56762       12.13542
C         31.55330       16.57205       13.14570
S         30.96414       15.76205       14.54160
C         29.43716       15.42454       13.84754
C         28.41136       14.70350       14.68079
F         27.15256       15.15394       14.46536
F         28.42496       13.36939       14.44101
F         28.63203       14.86006       16.01478
C         32.94826       17.13837       13.23338
F         33.38942       17.77547       12.12917
F         33.04228       18.03820       14.24910
F         33.85549       16.16002       13.49543
C         30.75180       17.17686       10.81015
O         31.78202       17.69233       10.40108
C         29.54702       17.12666       10.00094
C         29.44291       17.73582        8.77388
S         27.91458       17.53633        8.07912
H         -7.56641        5.66354        2.11505
H         -4.61560        7.57987        9.53775
H         -6.76960        7.37633        8.06062
H         -2.20206        6.60570       10.20880
H          0.37770        7.01784       10.45204
H          4.29114        9.46696        6.40701
H          1.72382        9.03132        6.17499
H          5.78303        7.97328        9.68321
H          6.02274       10.42661        7.82723
H          8.24865       11.44829        7.91552
H         11.34793       11.95579        8.60948
H         11.07762        8.62110       11.24860
H          7.98218        8.08777       10.52227
H         13.33175        9.57692       11.24999
H         13.57327       12.00822        9.36627
H         17.78227       10.80513       12.65329
H         15.18190       10.43826       12.55186
H         20.15027       10.52133       11.54270
H         22.34985       11.63641       10.63384
H         23.17377       15.82754        6.36287
H         21.02562       14.44028        6.98643
H         25.81483       15.88485        7.26423
H         25.53742       15.89840       10.34374
H         30.20233       18.30935        8.25772
