127

S         16.25346      -16.13187       -5.30353
C         15.39406      -14.51074       -5.47610
C         16.18667      -13.65916       -6.47216
C         13.98634      -14.80356       -6.00318
C         15.41029      -13.91533       -4.07045
C         16.16718      -14.59879       -3.16632
C         16.87223      -15.77621       -3.69229
C         17.87108      -16.50355       -3.14211
C         18.49159      -16.19101       -1.90969
N         19.02916      -15.93452       -0.91963
C         18.42882      -17.63513       -3.82921
N         18.88737      -18.54679       -4.37236
C         16.17600      -14.27181       -1.77523
N         16.15679      -14.03191       -0.64123
C         14.66734      -12.75377       -3.65320
C         13.34066      -12.65468       -3.31336
C         12.90433      -11.34172       -2.86485
C         11.65276      -10.86389       -2.36860
C         10.41975      -11.72032       -2.39928
C          9.10251      -11.36578       -2.68741
C          8.18130      -12.45767       -2.63879
C          8.80799      -13.65211       -2.37122
S         10.45428      -13.39665       -1.99477
C          8.24314      -15.03564       -2.34761
Cl         6.50415      -12.25270       -2.91994
C         11.56115       -9.54440       -1.85216
C         12.60468       -8.62063       -1.98485
C         13.83555       -9.07914       -2.53452
C         13.97801      -10.43589       -2.93309
S         15.40666      -11.23328       -3.53396
C         15.00694       -8.15502       -2.63488
C         15.96133       -8.02436       -3.63726
C         16.96486       -7.04936       -3.35766
C         16.72633       -6.38121       -2.17979
S         15.42446       -7.09593       -1.33212
C         17.45743       -5.22604       -1.57876
Cl        18.27877       -6.77085       -4.41986
C         12.16402       -7.30729       -1.53374
C         10.93290       -7.27249       -0.90715
S         10.28646       -8.85370       -0.90440
C         10.22309       -6.13765       -0.24679
C         10.86804       -5.09022        0.45094
C         10.13694       -4.01349        1.11244
N         10.83732       -3.04249        1.73937
C         12.18646       -3.09061        1.73838
C         12.86812       -4.11107        1.12944
N         12.22073       -5.10982        0.49287
F         14.20800       -4.13510        1.14614
F         12.84719       -2.10180        2.35635
C          8.71477       -3.92829        1.13186
C          8.04261       -4.95582        0.38948
C          8.80365       -6.05420       -0.31438
N          7.98879       -6.88319       -0.99253
S          6.43849       -6.41672       -0.72710
N          6.71762       -5.10168        0.21013
C          7.94097       -2.84872        1.85712
C          8.37392       -1.73773        2.56885
C          7.34423       -0.86318        3.12477
C          7.38841        0.42077        3.75867
C          8.69483        1.17350        3.78210
C         10.00611        0.71785        3.90509
C         11.00173        1.73779        3.78856
C         10.45224        2.98049        3.59241
S          8.75328        2.89001        3.55276
C         11.14090        4.28766        3.37490
Cl        12.67818        1.39257        3.85229
C          6.19211        0.95713        4.33287
C          4.99821        0.21348        4.36981
C          4.93440       -0.98954        3.61338
C          6.09891       -1.48070        2.97636
S          6.23774       -2.80636        1.88957
C          3.64258       -1.74019        3.48016
C          3.39830       -3.10721        3.38139
C          2.01991       -3.44482        3.24172
C          1.20758       -2.33846        3.30982
S          2.13503       -0.90411        3.32152
C         -0.28279       -2.27122        3.35587
Cl         1.49250       -5.06403        3.06241
C          4.04439        0.83709        5.27744
C          4.38283        2.10545        5.69390
S          5.89753        2.51865        5.05560
C          3.68739        3.00479        6.57850
C          2.77181        3.89556        6.10591
C          2.06980        4.68450        7.13912
C          1.26354        5.77113        7.03786
C          0.98665        6.43181        5.80712
N          0.75432        7.01441        4.83219
C          0.65431        6.37239        8.18781
N          0.15772        6.87002        9.11328
S          2.44020        3.99270        8.71853
C          3.88401        3.03609        8.09662
C          5.15102        3.80367        8.49764
C          3.84792        1.65968        8.76351
C          2.44801        4.01770        4.72133
N          2.15909        4.13204        3.60543
H         16.28966      -14.16311       -7.44118
H         17.19436      -13.42917       -6.10479
H         15.68286      -12.70386       -6.65831
H         14.01516      -15.39004       -6.93030
H         13.45000      -13.87566       -6.23239
H         13.38260      -15.35910       -5.27512
H         12.71517      -13.53526       -3.32515
H          8.78890      -10.35568       -2.92445
H          7.20074      -15.03907       -2.01362
H          8.80376      -15.69263       -1.67456
H          8.27623      -15.47528       -3.35158
H         15.96657       -8.61651       -4.54320
H         18.06642       -4.70305       -2.32417
H         18.12094       -5.56414       -0.77718
H         16.76001       -4.48814       -1.16585
H         12.76837       -6.41427       -1.62555
H          9.42327       -1.53108        2.67812
H         10.28262       -0.31673        4.04855
H         11.74715        4.56556        4.24373
H         10.43447        5.10305        3.18555
H         11.80127        4.21847        2.50375
H          4.17167       -3.86441        3.39714
H         -0.73637       -3.03489        2.71623
H         -0.66340       -1.29822        3.02988
H         -0.62872       -2.44202        4.38217
H          3.12689        0.35967        5.59986
H          5.20712        4.78852        8.01691
H          6.05477        3.25342        8.21346
H          5.19982        3.95995        9.58236
H          2.98175        1.06980        8.44167
H          3.81003        1.74426        9.85684
H          4.74731        1.08155        8.52201
