58

C          3.07602       -0.47329        4.35194
C          3.06766       -0.21992        2.97811
C          2.87364       -1.26750        2.06389
C          2.68265       -2.59939        2.50662
C          2.69662       -2.81957        3.90493
C          2.88857       -1.77984        4.79327
N          2.87950       -2.12899        6.08910
Se         2.61332       -3.89133        6.28812
N          2.53250       -4.01358        4.49943
C          2.47933       -3.70543        1.51863
C          2.45705       -3.55826        0.11369
C          2.25202       -4.77738       -0.52070
C          2.11519       -5.84638        0.31297
S          2.23833       -5.36179        1.90552
C          1.91472       -7.03286       -0.36117
C          1.89916       -6.87243       -1.71706
S          2.13212       -5.24434       -2.15268
C          1.70197       -8.03982       -2.44165
C          1.56041       -9.13824       -1.57947
S          1.68316       -8.63926        0.05305
C          1.33717      -10.52488       -2.00849
N          1.19271      -11.55491       -1.12758
C          1.00056      -12.69571       -1.82415
C          0.99048      -12.60518       -3.16623
S          1.22835      -11.02361       -3.64905
N          0.79938      -13.74580       -3.86321
C          0.65298      -14.77610       -2.98241
S          0.75992      -14.27728       -1.34165
C          0.43209      -16.16273       -3.41305
C          0.26913      -17.25819       -2.55105
C          0.08645      -18.42754       -3.27650
C          0.10342      -18.27223       -4.63324
S          0.34458      -16.66686       -5.04632
C         -0.07550      -19.46273       -5.30767
C         -0.23009      -20.52816       -4.47227
S         -0.15541      -20.05366       -2.83992
C         -0.40787      -21.75225       -5.10469
C         -0.38660      -21.61500       -6.51038
S         -0.14894      -19.95855       -6.90073
C         -0.53859      -22.73238       -7.49515
C         -0.72128      -24.06377       -7.04679
C         -0.86039      -25.12348       -7.95685
C         -0.82119      -24.88341       -9.33240
C         -0.64255      -23.57740       -9.77955
C         -0.50443      -22.52576       -8.89520
N         -0.33968      -21.33444       -9.49500
Se        -0.35030      -21.47536      -11.28423
N         -0.59047      -23.24066      -11.07760
H          3.22596        0.33429        5.05736
H          3.21203        0.79038        2.61722
H          2.87654       -1.01676        1.01426
H          2.58131       -2.63426       -0.43058
H          1.66336       -8.08626       -3.52174
H          0.28442      -17.20892       -1.47055
H         -0.53893      -22.67370       -4.55785
H         -0.75805      -24.30528       -5.99578
H         -0.99822      -26.13302       -7.59125
H         -0.92779      -25.70064      -10.03463
