125

C         12.83965       -1.46259        1.12697
C         13.57734       -0.31868        1.25556
S         12.96870        0.92084        0.21845
C         11.72059       -0.09260       -0.39765
C         10.76116        0.42011       -1.41652
C         11.79890       -1.33631        0.17780
C         11.03557       -2.54820        0.01984
O         10.07310       -2.71291       -0.70154
C         11.75127       -3.53034        0.96495
C         12.82766       -2.78044        1.72008
C         13.56116       -3.19391        2.78052
C         14.52530       -2.34392        3.41158
N         15.30864       -1.66250        3.92367
C         13.41854       -4.46695        3.38703
N         13.29554       -5.50994        3.88185
C         11.46923       -4.84875        0.98787
C         10.43384       -5.43773        0.21413
C          9.10335       -5.59491        0.52803
C          8.27260       -5.96866       -0.59687
C          6.86057       -5.96880       -0.78925
C          5.91926       -5.59517        0.31500
C          4.65701       -6.10202        0.61545
C          4.05718       -5.52265        1.77642
C          4.89888       -4.62626        2.39080
S          6.26603       -4.31434        1.42136
C          4.73204       -3.94721        3.70810
C          6.34379       -6.22310       -2.08390
C          7.16181       -6.68303       -3.12855
C          8.53270       -6.93992       -2.84584
C          9.08547       -6.41876       -1.65086
S         10.76556       -6.15517       -1.28425
C          9.40106       -7.75597       -3.75883
C         10.43756       -8.62518       -3.42086
C         10.97683       -9.35571       -4.52408
C         10.30261       -9.08357       -5.68962
S          9.22903       -7.78162       -5.47304
C         10.41713       -9.76566       -7.01081
C          6.40128       -6.73060       -4.35659
C          5.12205       -6.23315       -4.27893
S          4.71553       -6.01426       -2.64532
C          4.17936       -5.89498       -5.35106
C          3.18231       -4.91056       -5.19896
C          2.28542       -4.55048       -6.21778
F          1.39193       -3.59515       -5.90809
C          2.27409       -5.11264       -7.51088
C          3.28562       -6.07913       -7.75800
C          4.26121       -6.48354       -6.65331
N          5.13349       -7.41726       -7.07293
S          4.81149       -7.72961       -8.66156
N          3.50885       -6.74605       -8.90451
C          1.25986       -4.73493       -8.49072
C         -0.07104       -4.49256       -8.23664
C         -0.76362       -3.78808       -9.28202
C         -2.03312       -3.15028       -9.32653
C         -3.12688       -3.45072       -8.35348
C         -4.49950       -3.48077       -8.59374
C         -5.27360       -3.96637       -7.49770
C         -4.47666       -4.34297       -6.44391
S         -2.85924       -3.87957       -6.70960
C         -4.86029       -5.05843       -5.19437
C         -2.28270       -2.22558      -10.36189
C         -1.54271       -2.25720      -11.54983
C         -0.41254       -3.11994      -11.61684
C          0.04649       -3.73261      -10.42904
S          1.60003       -4.44494      -10.12092
C          0.35140       -3.30888      -12.88465
C          0.98823       -4.44049      -13.38470
C          1.53225       -4.26433      -14.69836
C          1.25577       -3.01461      -15.20101
S          0.61663       -2.01932      -13.98484
C          1.46787       -2.48937      -16.58088
C         -2.17374       -1.38821      -12.51166
C         -2.96623       -0.41161      -11.94291
S         -3.40777       -0.90255      -10.37499
C         -3.49784        0.78546      -12.50095
C         -2.87378        1.51877      -13.43871
C         -3.76992        2.41016      -14.28550
O         -4.83301        2.92134      -13.99345
C         -3.08226        2.38915      -15.55750
C         -3.38241        2.82588      -16.82101
S         -2.14334        2.34180      -17.92267
C         -1.20301        1.59214      -16.68353
C         -1.82096        1.74622      -15.47598
C         -1.54810        1.40740      -14.10693
C         -0.32981        1.29658      -13.52930
C          0.86617        1.32273      -14.30705
N          1.82416        1.31851      -14.96207
C         -0.15892        1.23537      -12.11653
N         -0.00761        1.21062      -10.96644
C         -4.55832        3.59676      -17.30663
H         14.43163       -0.08871        1.87754
H         10.91563        1.48345       -1.63007
H          9.73400        0.29988       -1.05922
H         10.86980       -0.13471       -2.35396
H         12.02180       -5.55313        1.59405
H          8.72974       -5.29239        1.49536
H          4.16356       -6.87493        0.03919
H          3.08368       -5.79751        2.16642
H          3.67450       -3.86943        3.98079
H          5.15468       -2.93779        3.70664
H          5.23595       -4.52681        4.49086
H         10.78561       -8.78035       -2.40777
H         11.76612      -10.09367       -4.44375
H         11.44704      -10.08432       -7.19982
H         10.10499       -9.12270       -7.83985
H          9.78202      -10.65976       -7.02114
H          6.82426       -6.96797       -5.31759
H          3.08141       -4.36986       -4.25786
H         -0.45999       -4.65894       -7.24412
H         -4.94918       -3.21590       -9.54250
H         -6.34926       -4.09551       -7.51744
H         -5.94577       -5.04734       -5.05116
H         -4.39722       -4.60854       -4.31116
H         -4.54528       -6.10716       -5.25304
H          1.04354       -5.38404      -12.85570
H          2.03869       -5.03892      -15.26204
H          2.52431       -2.52901      -16.85988
H          1.12373       -1.45474      -16.69135
H          0.89939       -3.09499      -17.29650
H         -1.91788       -1.35870      -13.55989
H         -4.51282        1.05582      -12.20585
H         -0.27231        1.10256      -16.93944
H         -5.39638        3.52394      -16.60708
H         -4.90479        3.22988      -18.27791
H         -4.29367        4.65441      -17.40899
