77

C          1.33853      -12.89891       -4.61912
O          0.03444      -13.17864       -4.35368
C         -0.71100      -12.33002       -5.10798
C          0.10161      -11.50304       -5.84872
C          1.43325      -11.87199       -5.53176
C          2.65417      -11.33689       -6.03326
C          2.82076      -10.06812       -6.44048
C          4.07625       -9.56656       -6.95345
C          4.40334       -8.26538       -6.92401
C          5.64716       -7.80852       -7.45367
O          6.51199       -8.63371       -8.14990
C          7.59659       -7.91666       -8.52387
C          7.48383       -6.62291       -8.09111
C          6.24750       -6.54724       -7.39598
C          5.71029       -5.39416       -6.74282
C          6.45348       -4.38087       -6.26993
C          5.94057       -3.24071       -5.54517
C          4.85150       -2.53825       -5.88561
C          4.35287       -1.39456       -5.18798
O          3.11554       -0.88839       -5.55357
C          2.81596        0.17022       -4.77080
C          3.82871        0.39893       -3.87832
C          4.82249       -0.58211       -4.14318
C          6.08087       -0.69325       -3.47199
C          6.33863       -0.33704       -2.20260
C          7.62851       -0.58227       -1.59115
C          8.13099        0.13585       -0.57591
C          9.39228       -0.21968       -0.01250
O          9.82281       -1.53426        0.03313
C         11.03360       -1.57860        0.63027
C         11.44287       -0.31689        0.96887
C         10.39905        0.56129        0.56533
C         10.38241        1.98545        0.72279
C         11.48012        2.76183        0.78146
C         11.43116        4.19405        0.98756
C         12.52318        4.97446        1.05963
C         12.38700        6.37819        1.28984
O         11.23534        7.06794        0.96152
C         11.40004        8.37106        1.28131
C         12.63599        8.57565        1.83157
C         13.28676        7.30766        1.82437
C         14.60243        7.02764        2.31725
C         15.59790        7.92445        2.39203
C         16.91058        7.63025        2.92027
C         17.89737        8.53179        2.96924
H          2.05915      -13.49885       -4.08072
H         -1.78229      -12.43823       -5.01297
H         -0.23137      -10.74331       -6.54133
H          3.51240      -12.00743       -6.04507
H          1.99472       -9.36255       -6.38207
H          4.76365      -10.29668       -7.37835
H          3.73525       -7.54293       -6.46644
H          8.34602       -8.45789       -9.08181
H          8.20396       -5.83551       -8.25952
H          4.63247       -5.35902       -6.59900
H          7.53911       -4.41761       -6.34108
H          6.55690       -2.97929       -4.69484
H          4.26148       -2.84793       -6.74558
H          1.86836        0.64855       -4.97193
H          3.85419        1.19263       -3.14470
H          6.91039       -1.08229       -4.05506
H          5.56529        0.09880       -1.57501
H          8.19999       -1.42087       -1.99217
H          7.60566        1.00084       -0.18462
H         11.46610       -2.56287        0.74075
H         12.37178       -0.06539        1.45928
H          9.40526        2.45753        0.80499
H         12.46705        2.31791        0.67099
H         10.44462        4.63896        1.11259
H         13.52126        4.56193        0.95549
H         10.55802        9.01525        1.07130
H         13.01750        9.51506        2.19765
H         14.78986        6.00904        2.65446
H         15.44001        8.94180        2.03976
H         17.09508        6.62303        3.29692
H         17.77049        9.54698        2.61058
H         18.86735        8.26685        3.37901
