52

C          2.42480       -4.13751        2.96932
C          3.67296       -3.58517        3.41136
C          4.04506       -2.56952        2.63125
C          2.98907       -2.45866        1.61109
O          3.01736       -1.65849        0.69563
C          1.95659       -3.48562        1.89658
C          0.74418       -3.72845        1.21065
S          0.00903       -5.31061        1.19852
C         -1.30246       -4.83153        0.20510
C         -1.20929       -3.50429       -0.10342
C         -0.06720       -2.93101        0.45975
C         -0.02309       -1.56344        0.06825
C         -1.08515       -1.18236       -0.76464
C         -1.29507        0.16274       -1.38358
S         -2.26164       -2.43599       -1.11044
C         -2.24914       -5.73278       -0.32898
C         -2.10503       -6.45551       -1.57186
C         -3.16195       -7.23285       -1.81603
C         -4.06145       -7.00968       -0.67254
O         -5.14522       -7.54463       -0.53514
C         -3.42196       -6.04303        0.24681
C         -3.97909       -5.59673        1.45923
S         -3.65289       -6.42257        2.93913
C         -4.68729       -5.40449        3.88857
C         -5.28158       -4.47180        3.07250
C         -4.85736       -4.60391        1.74740
C         -5.50242       -3.61992        0.95061
C         -6.38731       -2.81205        1.67813
C         -7.25919       -1.71910        1.14591
S         -6.46175       -3.13542        3.39947
C         -4.86560       -5.53991        5.29539
C         -6.00534       -5.19392        6.12047
C         -5.76692       -5.40703        7.41663
C         -4.40776       -5.94856        7.45621
O         -3.80363       -6.27866        8.45767
C         -3.89181       -6.01927        6.08446
H          1.94481       -4.96036        3.47965
H          4.21814       -3.94933        4.26979
H          4.91330       -1.93790        2.68523
H          0.75828       -0.86521        0.34402
H         -0.51078        0.86178       -1.07454
H         -2.25931        0.58455       -1.08305
H         -1.26624        0.09028       -2.47588
H         -1.23903       -6.36662       -2.21297
H         -3.36347       -7.89104       -2.63862
H         -5.35554       -3.49863       -0.11619
H         -7.22619       -1.68965        0.05222
H         -6.93035       -0.74549        1.52310
H         -8.30241       -1.87487        1.44236
H         -6.94143       -4.81703        5.73622
H         -6.39525       -5.24813        8.27276
H         -2.90373       -6.36861        5.84695
