74

C          3.75420       -4.68247       -0.65049
C          5.13646       -4.36466       -0.47321
C          5.37813       -3.10249       -0.82050
C          4.06867       -2.55553       -1.22151
O          3.93864       -1.39021       -1.54004
C          3.04813       -3.64132       -1.13197
C          1.63305       -3.62362       -1.37374
S          0.67837       -4.99627       -0.87462
C         -0.82628       -4.38255       -1.44204
C         -0.64370       -3.05462       -1.80041
C          0.75998       -2.69902       -1.93605
C          1.16802       -1.50546       -2.54743
C          0.11666       -0.62807       -2.90500
C          0.49345        0.65310       -3.61571
C         -1.26426       -0.94556       -2.68083
O         -2.13101        0.07777       -2.99901
C         -3.44556       -0.29313       -3.38443
C         -1.69829       -2.18337       -2.14523
C         -2.00429       -5.21042       -1.49068
C         -1.99378       -6.55954       -1.45090
C         -3.15418       -7.41442       -1.68484
C         -3.55282       -7.75901       -3.03992
C         -4.59077       -8.59170       -3.06791
C         -4.94365       -8.79190       -1.66266
O         -5.90006       -9.46115       -1.29958
C         -3.98165       -8.03407       -0.80952
C         -4.01649       -8.05068        0.61899
S         -4.28480       -9.54608        1.46280
C         -4.24821       -8.84453        3.05076
C         -3.90075       -7.50843        2.92995
C         -3.89326       -7.05450        1.56622
C         -3.73270       -5.71997        1.21972
C         -3.33948       -4.85386        2.26752
C         -2.86557       -3.50985        1.76808
C         -3.31407       -5.30458        3.63259
O         -2.96437       -4.57741        4.74809
C         -2.76913       -3.17924        4.65114
C         -3.64826       -6.64349        4.00860
C         -4.57162       -9.59919        4.23108
C         -4.53214      -10.94101        4.31555
C         -4.80615      -11.73728        5.50120
C         -4.64994      -13.17724        5.59315
C         -4.92533      -13.63369        6.81497
C         -5.30624      -12.44230        7.57688
O         -5.62317      -12.42243        8.75077
C         -5.22588      -11.27456        6.68848
H          3.37353       -5.66079       -0.39921
H          5.86953       -5.06413       -0.09786
H          6.29467       -2.54457       -0.80842
H          2.18808       -1.24507       -2.78142
H          1.56595        0.85953       -3.52526
H         -0.03523        1.51377       -3.19366
H          0.25619        0.56356       -4.68085
H         -3.94750        0.60788       -3.75138
H         -4.02161       -0.66575       -2.53259
H         -3.42289       -1.02148       -4.20099
H         -2.73928       -2.41633       -1.97912
H         -2.95187       -4.69633       -1.62435
H         -1.05640       -7.11017       -1.40788
H         -3.03011       -7.40017       -3.91628
H         -5.09633       -9.04739       -3.89871
H         -3.86342       -5.36494        0.21401
H         -3.00733       -3.41227        0.68538
H         -1.78959       -3.40585        1.94097
H         -3.42789       -2.68174        2.19639
H         -2.64459       -2.78163        5.66201
H         -3.64533       -2.68136        4.22796
H         -1.84881       -2.95151        4.10653
H         -3.64232       -6.94923        5.04941
H         -4.86209       -9.01872        5.10271
H         -4.23936      -11.53312        3.45047
H         -4.33403      -13.79136        4.76158
H         -4.89435      -14.63491        7.20506
H         -5.45169      -10.27676        7.01463
