79

C          3.39672       -3.28123        0.66817
S          4.06791       -1.86384        1.34941
C          5.19228       -1.69993        0.06724
C          5.05665       -2.71125       -0.86031
C          4.01549       -3.62680       -0.51272
C          6.12050       -0.61725       -0.00091
C          6.81533        0.36554        0.02459
C          7.48581        1.61313        0.17091
C          8.79003        1.72060        0.47034
C          9.33252        3.00235        0.79869
S          9.96450        3.98239       -0.46891
C         10.32398        5.31888        0.56396
C          9.91486        5.05001        1.86038
C          9.44726        3.66315        2.01465
C          9.11335        3.11937        3.27928
C          8.82827        1.74191        3.51767
N          8.64120        0.62397        3.76637
C          9.19253        4.03718        4.35068
C          9.59391        5.39084        4.19278
C          9.99565        5.94419        2.95577
C         10.41369        7.30489        2.86935
N         10.74339        8.41719        2.85885
C         11.01942        6.42127       -0.01681
C         10.36190        7.48170       -0.51163
C         11.05486        8.59804       -1.07062
S         10.31520       10.15396       -1.00977
C         11.64774       10.91970       -1.75121
C         12.62604       10.01752       -2.09570
C         12.28716        8.68503       -1.70132
C         11.70686       12.33138       -1.94624
C         11.68050       13.63392       -1.99861
C         11.64977       15.15238       -2.05966
C         10.60993       15.99174       -2.02140
C         10.86136       17.40735       -2.12466
S         10.88013       18.09744       -3.70425
C         11.15043       19.73040       -3.17456
C         11.14647       19.75850       -1.78299
C         11.11298       18.40128       -1.18674
C         11.27120       18.19429        0.20576
C         11.42784       16.91833        0.82253
N         11.60792       15.91334        1.37347
C         11.37608       19.37754        0.97209
C         11.33249       20.68015        0.41053
C         11.23604       20.92506       -0.97808
C         11.17820       22.26331       -1.46920
N         11.14147       23.36791       -1.82316
C         11.40806       20.75755       -4.15655
C         10.83005       20.76987       -5.37088
C         11.13548       21.73689       -6.37760
S          9.90840       22.14900       -7.51961
C         10.93597       23.18789       -8.39717
C         12.19475       23.24100       -7.84474
C         12.30607       22.41762       -6.67681
C         10.50453       23.88720       -9.56683
C         10.09256       24.44690      -10.54398
C          9.55305       25.09659      -11.68849
C          9.87668       24.72147      -12.93028
H          2.58170       -3.78874        1.16644
H          5.66545       -2.79494       -1.75234
H          3.73301       -4.49243       -1.09962
H          6.85821        2.49760        0.10160
H          9.43056        0.84530        0.54580
H          8.94641        3.69478        5.35875
H          9.60890        6.02375        5.08370
H         12.10550        6.37181       -0.02511
H          9.27660        7.53160       -0.45500
H         13.55040       10.29266       -2.58924
H         12.93082        7.83160       -1.87714
H         12.65711       15.56250       -2.13333
H          9.58706       15.63632       -1.95608
H         11.49976       19.29570        2.05498
H         11.39047       21.53033        1.09537
H         12.11097       21.54592       -3.89493
H         10.08896       20.01986       -5.63611
H         13.00677       23.82989       -8.25642
H         13.22543       22.30706       -6.11379
H          8.84574       25.90589      -11.52980
H         10.57190       23.90999      -13.12188
H          9.44137       25.22186      -13.78947
