107

C          9.31234        6.86572       -2.14159
C         10.14199        7.93271       -2.18366
C         11.47935        7.82710       -2.65942
N         12.56569        7.72948       -3.05721
C          9.72033        9.19242       -1.66454
N          9.33353       10.18977       -1.20788
C          9.69810        5.44362       -2.25694
C          8.98470        4.74500       -1.26293
C          8.93289        3.36895       -1.18489
C          9.47648        2.65989       -2.25550
C         10.15342        3.34767       -3.31330
C         10.32527        4.74625       -3.27106
C         10.54098        2.61959       -4.44478
C         10.24126        1.25955       -4.55386
C          9.60233        0.59327       -3.51111
C          9.24329        1.28469       -2.35633
C          7.96516        5.63973       -0.66739
O          7.19860        5.39408        0.23747
C          7.96350        6.82496       -1.59995
C          6.75137        7.14324       -2.08546
C          6.20601        7.80782       -3.26879
C          6.68806        8.77074       -4.09387
N          8.06022        9.00272       -4.40244
O          8.45491       10.17344       -4.40891
O          8.74101        8.02103       -4.72845
C          5.65074        9.50127       -4.77723
C          4.47502        8.95087       -4.45949
C          4.74428        7.75552       -3.66522
C          3.88258        6.71149       -3.58620
C          4.29850        5.32552       -3.33317
C          3.24424        4.52899       -3.57838
C          2.10926        5.35927       -3.92352
N          0.78630        4.82544       -4.16831
O         -0.20080        5.51659       -3.88549
O          0.72995        3.67014       -4.61448
C          2.42550        6.67161       -3.93599
C          1.51689        7.76114       -4.23384
C          1.35482        8.84114       -3.45362
C          0.52119        9.97783       -3.74480
C         -0.16356       10.61449       -2.72161
C         -0.18637       10.30704       -1.25624
S         -1.07550       11.93295       -3.29646
C         -0.51129       11.73871       -4.90099
C         -0.94143       12.75652       -5.90957
C          0.33298       10.64214       -5.02706
C          1.03392       10.29864       -6.24591
C          0.61677       10.44295       -7.51486
C          1.44956       10.15468       -8.64062
S          1.26810       11.14124      -10.06362
C          2.47718       10.29574      -10.98211
C          2.97645        9.28185      -10.20540
C          2.41674        9.21150       -8.89962
C          2.99249        8.08950       -8.18399
O          2.68898        7.69596       -7.06946
C          4.05319        7.44983       -9.08006
C          3.92615        8.20221      -10.40760
O          4.47898        7.89470      -11.45381
C          2.68122       10.67907      -12.34217
C          3.85691       10.80120      -12.97557
C          4.12302       11.15959      -14.40587
C          3.27323       11.06751      -15.45933
C          3.66428       11.34384      -16.80260
N          3.96557       11.57530      -17.89937
C          1.91913       10.63073      -15.33623
N          0.81669       10.28294      -15.23715
C          5.58984       11.45379      -14.50908
C          6.19976       11.07439      -13.31035
C          5.19854       10.73491      -12.29511
O          5.44920       10.59249      -11.11279
C          7.56739       11.13000      -13.09013
C          8.37939       11.65798      -14.09492
C          7.78982       12.13987      -15.29461
C          6.39309       12.02417      -15.49342
C          8.62223       12.73508      -16.25850
C         10.00072       12.83845      -16.05130
C         10.57234       12.33820      -14.88548
C          9.76625       11.74985      -13.91251
H          8.33256        2.88662       -0.41861
H         10.79345        5.27053       -4.10069
H         11.02442        3.11667       -5.28368
H         10.49007        0.72236       -5.46571
H          9.35785       -0.46161       -3.60655
H          8.72255        0.74960       -1.56419
H          5.92183        6.77464       -1.46780
H          5.80767       10.37722       -5.38858
H          3.53333        9.28895       -4.83492
H          5.29718        4.97165       -3.13012
H          3.22768        3.44881       -3.56862
H          0.94677        7.66743       -5.15711
H          1.89108        8.86914       -2.50588
H         -0.21740        9.22702       -1.08009
H         -1.05605       10.74389       -0.75437
H          0.71531       10.70681       -0.77875
H         -1.40320       13.63425       -5.44468
H         -1.67746       12.32446       -6.59454
H         -0.08332       13.11553       -6.48689
H          2.02740        9.89949       -6.09705
H         -0.37113       10.84298       -7.72097
H          3.82639        6.39199       -9.22501
H          5.04226        7.60843       -8.64305
H          1.75897       10.91525      -12.86149
H          7.97665       10.79514      -12.14104
H          5.97946       12.41689      -16.41845
H          8.20432       13.13344      -17.18117
H         10.62972       13.31058      -16.80246
H         11.64529       12.41354      -14.72691
H         10.23050       11.37261      -13.00327
