113

C         -1.20104        0.33273       -2.37282
C         -1.21435        0.87499       -3.61467
C         -2.18912        0.49910       -4.58737
N         -2.97609        0.19129       -5.38458
C         -0.15180        1.71035       -4.07578
N          0.73428        2.35001       -4.47048
C         -2.00000       -0.83168       -1.93511
C         -1.16088       -1.65762       -1.16575
C         -1.59234       -2.83570       -0.58577
C         -2.95979       -3.13302       -0.66656
C         -3.84953       -2.23534       -1.33322
C         -3.35194       -1.10706       -2.01203
C         -5.22972       -2.46563       -1.25629
C         -5.73118       -3.57391       -0.57226
C         -4.85912       -4.48615        0.01529
C         -3.48153       -4.26886       -0.03224
C          0.09920       -0.93338       -0.86158
O          1.05831       -1.33987       -0.24395
C         -0.15838        0.46491       -1.36011
C          0.19243        1.47516       -0.54610
C         -0.46933        2.74218       -0.52027
S         -1.82607        2.97289        0.51083
C         -1.98759        4.65148        0.11337
C         -1.11893        4.97424       -0.93067
C         -0.09437        3.95310       -1.07570
C          1.22324        4.21572       -1.76834
C          2.24475        4.43191       -0.72168
N          3.02069        4.63213        0.12139
C          1.19360        5.43259       -2.70334
C         -0.20618        5.92935       -3.04968
C         -1.05958        6.23830       -1.78990
O         -2.38045        6.63857       -2.18490
C         -2.42267        7.81286       -2.99520
C         -2.93956        5.45262        0.82193
C         -4.21860        5.66668        0.42504
N         -4.89434        4.97654       -0.64579
O         -5.78554        5.60424       -1.23606
O         -4.63346        3.78192       -0.84086
C         -4.87724        6.67535        1.22634
C         -4.02661        7.07900        2.17886
C         -2.83341        6.22479        2.12021
C         -1.94197        6.08358        3.13427
C         -0.72989        5.26324        3.08042
C         -0.15266        5.27210        4.29162
C         -0.94853        6.09174        5.17325
N         -0.62663        6.27211        6.57548
O         -1.54215        6.50426        7.37621
O          0.56589        6.15225        6.89034
C         -2.02328        6.61969        4.54348
C         -2.99577        7.49812        5.16438
C         -4.30687        7.22894        5.26855
C         -5.21891        8.17316        5.81079
O         -6.53754        8.21411        5.42672
C         -7.21971        9.18288        6.13714
C         -6.28663        9.78371        6.96837
C         -5.02859        9.17793        6.74262
N         -6.54518       10.84966        7.87455
O         -7.41468       10.65931        8.73193
O         -5.85131       11.86461        7.73983
C         -8.61365        9.42707        5.97033
C         -9.20509        9.20130        4.78833
C        -10.62152        9.40340        4.57463
C        -11.48383        8.46172        4.15876
C        -12.92098        8.56733        3.81402
C        -13.80977        9.48375        4.28032
C        -15.19735        9.44221        3.95745
N        -16.32421        9.41418        3.68978
C        -13.44821       10.52260        5.17513
N        -13.15877       11.38191        5.90576
C        -13.24702        7.35676        2.99985
C        -12.17347        6.46137        3.08204
C        -11.05755        7.05601        3.82702
O        -10.01072        6.49539        4.07635
C        -12.16377        5.21229        2.47912
C        -13.27739        4.83553        1.72214
C        -14.36613        5.73941        1.57651
C        -14.33581        6.99948        2.21421
C        -15.46424        5.35617        0.79143
C        -15.49882        4.10687        0.16906
C        -14.43570        3.22174        0.32099
C        -13.33009        3.58373        1.09123
H         -0.90803       -3.44477       -0.00179
H         -4.03282       -0.42065       -2.50897
H         -5.93301       -1.76435       -1.70188
H         -6.80554       -3.72327       -0.49712
H         -5.25283       -5.35864        0.53078
H         -2.82149       -4.98411        0.45463
H          0.87755        1.27430        0.27797
H          1.51667        3.33035       -2.33396
H          1.72499        5.18086       -3.63025
H          1.74951        6.27482       -2.27010
H         -0.72502        5.19033       -3.67642
H         -0.08799        6.81985       -3.67546
H         -0.60016        7.04509       -1.20480
H         -3.46888        8.06542       -3.18738
H         -1.95755        7.64649       -3.97183
H         -1.94186        8.65548       -2.48942
H         -5.85557        7.08764        1.02642
H         -4.21213        7.90492        2.84371
H         -0.32366        4.74731        2.22968
H          0.75640        4.76410        4.57884
H         -2.58651        8.41970        5.57697
H         -4.72954        6.31117        4.86694
H         -4.09744        9.41826        7.23744
H         -9.18979        9.77624        6.82398
H         -8.63254        8.83910        3.93481
H        -10.93205       10.43102        4.74106
H        -11.30023        4.56172        2.58974
H        -15.17400        7.67091        2.05709
H        -16.31050        6.02788        0.65820
H        -16.35870        3.82474       -0.43380
H        -14.46530        2.24840       -0.16265
H        -12.50832        2.87745        1.19300
