119

C          2.73855        0.90252        0.81469
C          2.92481       -0.38513        1.16302
C          4.21767       -0.90744        1.38798
N          5.29417       -1.31921        1.55445
C          1.83753       -1.31247        1.20039
N          0.94891       -2.05541        1.22680
C          3.77478        1.93835        0.57206
C          3.29017        2.80212       -0.42007
C          3.94225        3.94078       -0.85052
C          5.09763        4.30658       -0.16337
C          5.57546        3.49595        0.91201
C          4.93137        2.28305        1.24527
C          6.65692        3.96249        1.66910
C          7.26173        5.18647        1.37299
C          6.81927        5.94793        0.29446
C          5.74531        5.50792       -0.47566
C          1.90381        2.45539       -0.73838
O          1.29574        2.83235       -1.71500
C          1.48571        1.51686        0.36215
C          0.35044        1.57936        1.08122
C         -0.68925        2.56962        0.93832
C         -1.14749        3.17522       -0.16796
C         -2.09803        4.22663        0.06702
C         -2.40649        4.40027        1.35778
S         -1.53398        3.24446        2.33869
O         -2.45285        2.25803        2.87440
O         -0.56771        3.91838        3.18495
C         -3.34218        5.33828        1.89072
C         -3.25842        6.65364        1.65005
C         -4.18393        7.59195        2.19504
N         -4.97997        8.42838        1.41903
C         -5.04024        8.44076       -0.02785
C         -6.08515        7.47935       -0.57186
C         -5.84546        9.20370        2.21830
O         -6.71448        9.98650        1.89576
C         -5.46855        8.79667        3.58417
C         -4.44345        7.80133        3.48490
C         -4.08850        7.36296        4.83962
O         -3.28122        6.51443        5.15514
N         -4.94617        8.13839        5.64597
C         -4.97818        7.93379        7.07350
C         -4.00552        8.82544        7.82109
C         -5.74623        8.98565        4.87327
C         -6.77629        9.85233        5.35280
C         -6.60484       10.90390        6.16807
C         -7.71692       11.75487        6.54358
C         -7.82367       13.08670        6.31383
N         -6.81004       13.90329        5.68545
O         -6.77809       15.09597        6.02191
O         -6.05338       13.38779        4.85283
C         -9.12592       13.59661        6.67676
C         -9.87534       12.57844        7.12396
C         -9.05961       11.36495        7.09831
C         -9.46765       10.14482        7.51321
C         -8.56050        9.05173        7.83662
C         -9.27780        7.97278        8.17161
C        -10.67236        8.34337        8.11340
N        -11.73885        7.40251        8.36950
O        -11.48914        6.21004        8.14190
O        -12.80487        7.82277        8.83563
C        -10.84617        9.63652        7.75600
C        -12.11978       10.28075        7.53397
C        -12.49434       10.83887        6.37268
C        -13.79089       11.46193        6.21819
C        -14.09981       12.47541        5.39441
C        -15.38550       13.19380        5.24191
C        -16.62420       12.67118        5.38156
C        -17.80590       13.40695        5.08679
N        -18.77072       14.00536        4.84903
C        -16.85245       11.31333        5.74991
N        -17.03252       10.20370        6.05188
C        -15.05269       14.54172        4.68835
C        -13.71597       14.52704        4.27184
C        -13.07728       13.25018        4.61165
O        -11.93676       12.94657        4.33132
C        -13.08174       15.60406        3.67388
C        -13.81347       16.77867        3.48729
C        -15.16520       16.84386        3.92859
C        -15.77177       15.72307        4.54076
C        -15.87853       18.03635        3.73911
C        -15.28073       19.13816        3.12300
C        -13.95891       19.06866        2.69229
C        -13.22731       17.89623        2.87631
H          3.49833        4.57114       -1.61598
H          5.29179        1.68924        2.08050
H          7.01828        3.39421        2.52362
H          8.07716        5.55003        1.99304
H          7.29740        6.89664        0.06409
H          5.39982        6.12832       -1.30069
H          0.25589        0.98352        1.99168
H         -0.82479        2.97312       -1.17624
H         -2.50124        4.80290       -0.75481
H         -4.12731        4.91909        2.51827
H         -2.45927        7.06730        1.03967
H         -4.05349        8.20383       -0.43940
H         -5.29044        9.45791       -0.34806
H         -5.87415        6.44771       -0.27184
H         -6.10087        7.52001       -1.66548
H         -7.08493        7.73572       -0.20655
H         -4.72834        6.88699        7.28399
H         -5.99035        8.06420        7.43637
H         -2.97499        8.60491        7.52718
H         -4.09791        8.66597        8.89995
H         -4.18731        9.88358        7.62045
H         -7.76542        9.64789        4.93980
H         -5.61424       11.19133        6.51077
H         -9.43433       14.62586        6.58162
H        -10.88192       12.66762        7.49263
H         -7.49673        9.13983        7.89960
H         -8.89911        7.01488        8.49569
H        -12.79335       10.29329        8.38993
H        -11.81731       10.84454        5.51898
H        -14.54447       11.04372        6.88262
H        -12.04149       15.52243        3.37115
H        -16.79567       15.81991        4.89003
H        -16.91473       18.11762        4.06252
H        -15.85178       20.05165        2.97538
H        -13.49683       19.92731        2.21064
H        -12.19388       17.86342        2.53366
