87

C         -9.32068      -10.35506        8.51779
C         -9.75144      -11.67960        8.54252
F        -10.53409      -12.09514        9.54766
C         -9.37442      -12.56346        7.54190
F         -9.78942      -13.83739        7.57169
C         -8.56084      -12.13935        6.49781
C         -8.11685      -10.81027        6.44919
C         -8.49923       -9.89613        7.47532
C         -8.05826       -8.55335        7.43059
C         -7.24379       -8.12215        6.38901
C         -6.91519       -9.04262        5.38527
C         -7.31559      -10.36960        5.39385
C         -6.14037       -8.39941        4.31801
O         -5.61091       -8.98404        3.39554
C         -6.12234       -6.93314        4.65192
C         -6.60865       -6.81082        6.05009
C         -6.37127       -5.79386        6.91567
C         -5.61695       -4.64031        6.55305
N         -5.00121       -3.70481        6.24728
C         -6.79135       -5.82122        8.27925
N         -7.13513       -5.84442        9.38467
C         -5.82224       -5.98511        3.74756
C         -5.44197       -6.20613        2.36874
C         -4.26162       -5.79399        1.87156
C         -3.92521       -6.08623        0.47019
C         -2.70702       -5.80248       -0.05808
C         -2.38264       -6.08578       -1.41802
N         -2.14302       -6.32206       -2.52853
C         -1.66857       -5.21915        0.72295
N         -0.83655       -4.74382        1.37456
C         -4.98852       -6.70003       -0.33285
C         -6.16304       -7.03432        0.23663
O         -6.40859       -6.83931        1.59556
C         -7.26930       -7.63060       -0.49557
C         -7.52573       -7.38005       -1.79484
C         -8.65760       -8.03225       -2.46013
C         -8.91899       -7.84897       -3.77967
C        -10.00931       -8.49804       -4.43400
N        -10.90055       -9.03087       -4.95211
C         -8.11444       -7.00576       -4.60041
N         -7.44648       -6.31059       -5.24509
C         -9.48478       -8.90628       -1.62059
C         -9.16094       -9.10973       -0.32926
O         -8.06949       -8.47913        0.26544
C         -9.88880      -10.01763        0.56638
C        -10.00920       -9.83008        1.95465
F         -9.49769       -8.71705        2.51057
C        -10.64728      -10.74424        2.82856
F        -10.64090      -10.40994        4.13036
C        -11.24355      -11.96056        2.42099
C        -11.16535      -12.17320        1.02019
C        -10.49189      -11.21540        0.10877
N        -10.56671      -11.71645       -1.13823
N        -11.26103      -12.84500       -0.97287
N        -11.63363      -13.18714        0.26584
C        -11.60135      -13.67299       -2.10569
C        -11.84636      -12.95936        3.31753
C        -11.95896      -14.34856        3.16632
C        -12.53196      -14.95348        4.30759
C        -12.84143      -14.01734        5.26682
S        -12.53772      -12.44828        4.83602
C        -13.31716      -14.67602        6.41837
C        -13.32059      -16.03377        6.18326
C        -12.87996      -16.28542        4.80999
C        -12.85190      -17.46305        4.15651
C        -13.34814      -18.65606        4.75347
N        -13.77534      -19.62204        5.23500
C        -12.36059      -17.57157        2.82589
N        -11.94562      -17.67321        1.74799
C        -13.66107      -16.76109        7.34319
C        -13.93525      -15.89496        8.39496
S        -13.76866      -14.22788        7.95424
H         -9.63740       -9.69447        9.32112
H         -8.28666      -12.85522        5.72810
H         -8.38864       -7.87810        8.21442
H         -7.02013      -11.02797        4.58133
H         -5.88121       -4.92917        3.99382
H         -3.56007       -5.26716        2.51217
H         -4.82434       -6.88715       -1.38939
H         -6.89177       -6.69891       -2.35349
H        -10.34878       -9.39996       -2.05402
H        -11.31300      -13.16158       -3.02848
H        -12.68078      -13.84174       -2.09905
H        -11.05926      -14.61675       -2.01508
H        -11.60182      -14.87215        2.28693
H        -13.68724      -17.83785        7.45783
H        -14.20700      -16.14909        9.41071
