106

C         -4.90504      -14.86441        4.03321
C         -3.66170      -15.44320        3.78144
F         -3.44972      -16.71852        4.13297
C         -2.64376      -14.70819        3.18979
F         -1.44998      -15.26922        2.95563
C         -2.84336      -13.37736        2.85203
C         -4.07056      -12.76563        3.13377
C         -5.13181      -13.51450        3.72282
C         -6.36761      -12.88674        4.01488
C         -6.51631      -11.51984        3.80194
C         -5.44532      -10.82640        3.22962
C         -4.24373      -11.41151        2.86750
C         -5.75245       -9.40431        3.06905
O         -4.92906       -8.58863        2.71823
C         -7.20445       -9.25168        3.42198
C         -7.60273      -10.53095        4.08364
C         -8.61947      -10.69557        4.96583
C         -8.83805      -11.91488        5.67601
N         -9.00080      -12.89784        6.26442
C         -9.50074       -9.63778        5.33067
N        -10.20524       -8.75826        5.62663
C         -8.01042       -8.24106        3.05248
C         -7.66617       -7.00268        2.42871
C         -8.39086       -6.33053        1.46185
C         -7.80360       -5.07679        1.08337
N         -8.29562       -4.30561        0.08078
C         -9.42275       -4.81165       -0.48309
C        -10.03217       -6.02215       -0.07428
N         -9.53229       -6.83750        0.90550
C        -11.25342       -6.55125       -0.77516
C         -9.94142       -3.96676       -1.60851
C         -6.67983       -4.74501        1.81896
S         -6.35663       -6.00650        2.95207
C         -5.77320       -3.63530        1.74955
C         -6.12469       -2.34822        1.59744
C         -5.19137       -1.27307        1.31940
C         -5.77937       -0.18864        0.78287
C         -7.21783       -0.33603        0.64497
S         -7.74310       -1.71119        1.61883
C         -8.07311        0.40651       -0.08075
C         -7.79964        1.56222       -0.91576
C         -8.90858        2.25503       -1.23849
C        -10.10513        1.71335       -0.61672
S         -9.79974        0.07190       -0.12919
C        -11.22504        2.41415       -0.36937
C        -12.30108        2.01624        0.49970
C        -13.64734        2.30226        0.40535
C        -14.40323        1.87679        1.55907
N        -15.74573        2.07361        1.69386
C        -16.28869        2.68539        0.60291
C        -15.54839        3.06327       -0.54675
N        -14.19626        2.92334       -0.67466
C        -16.24900        3.57583       -1.77335
C        -17.77644        2.89655        0.66694
C        -13.64641        1.23285        2.52740
S        -12.02797        1.20222        1.99907
C        -14.12222        0.71312        3.77623
C        -13.65932       -0.28241        4.55113
C        -14.66936       -0.84366        5.51865
O        -15.62400       -0.28821        6.02086
C        -14.32227       -2.26776        5.66508
C        -15.10261       -3.22956        6.28413
C        -14.71231       -4.56557        6.16884
C        -13.54211       -4.90356        5.41945
C        -13.22701       -6.26287        5.24834
C        -14.03739       -7.25200        5.80347
C        -15.14735       -6.91141        6.56360
C        -15.48623       -5.57725        6.75470
F        -15.91626       -7.86625        7.10528
F        -13.74966       -8.54208        5.58272
C        -12.74200       -3.87944        4.85115
C        -13.12814       -2.55102        4.98643
C        -12.54763       -1.24150        4.55783
C        -11.22154       -0.95425        4.65492
C        -10.74908        0.38540        4.78734
N        -10.36307        1.46497        4.95172
C        -10.23867       -1.96635        4.86128
N         -9.45562       -2.80163        5.06395
H         -5.67207      -15.47355        4.50465
H         -2.02599      -12.82357        2.39732
H         -7.16862      -13.49268        4.42753
H         -3.46127      -10.80492        2.41990
H         -9.08466       -8.35502        3.16835
H        -12.02216       -5.77901       -0.87708
H        -11.69832       -7.38064       -0.21500
H        -10.97463       -6.92327       -1.76620
H         -9.10564       -3.72358       -2.27387
H        -10.35637       -3.03226       -1.21889
H        -10.70157       -4.46296       -2.21383
H         -4.71492       -3.88552        1.75523
H         -4.12732       -1.36863        1.48459
H         -5.24328        0.69779        0.47581
H         -6.80349        1.84191       -1.22870
H         -8.91068        3.16191       -1.82765
H        -11.31249        3.41800       -0.78045
H        -16.82637        4.47791       -1.55491
H        -16.91319        2.79819       -2.16437
H        -15.52557        3.81980       -2.55819
H        -18.14577        2.75023        1.68770
H        -18.28539        2.18289        0.01255
H        -18.04085        3.91648        0.37165
H        -15.09821        1.12013        4.05208
H        -16.01354       -2.93775        6.80094
H        -12.35901       -6.57436        4.67138
H        -16.36689       -5.34586        7.34855
H        -11.84691       -4.15252        4.29579
