91

C         -5.57132        1.61851        8.70933
C         -5.42555        2.98798        8.89398
C         -5.20363        3.62939        7.65813
C         -5.18360        2.72917        6.61314
S         -5.43742        1.14492        7.04829
C         -4.90718        3.42574        5.41881
C         -4.74332        4.76106        5.71174
C         -4.96112        4.97533        7.13940
C         -4.97116        6.14395        7.81066
C         -4.75068        7.38591        7.15113
N         -4.57372        8.39935        6.61472
C         -5.23191        6.20103        9.20274
N         -5.44402        6.24636       10.34227
C         -4.38753        5.50727        4.57373
C         -4.32621        4.68965        3.44422
S         -4.72115        3.03514        3.81689
C         -3.95541        5.06037        2.01839
C         -2.45634        4.96690        1.80961
N         -1.80022        3.81727        2.01902
S         -0.19594        4.15239        1.69781
N         -0.32884        5.73977        1.19872
C         -1.62368        6.05063        1.34450
C         -2.13610        7.42410        0.96923
C         -3.62328        7.53963        1.21633
C         -4.46202        6.44463        1.65448
N         -5.77001        6.73199        1.70841
S         -5.88598        8.34475        1.28300
N         -4.28366        8.67002        0.93397
C         -1.30048        8.54968        1.58877
C         -0.59447        9.34437        0.75639
C          0.32117       10.34276        1.22510
C          0.53234       10.59692        2.65543
C         -0.07516        9.92938        3.63607
S         -1.24734        8.66944        3.35454
C          1.50014       11.61799        2.73801
C          1.90179       11.97523        1.47265
C          2.81505       13.04304        1.46496
C          3.09709       13.43464        2.76570
S          2.23753       12.50031        3.94960
C          1.18504       11.14123        0.52885
C          1.37202       11.13870       -0.91215
C          2.55117       11.39044       -1.50553
C          2.86753       11.37072       -2.90700
C          4.13753       11.00177       -3.30755
F          5.08092       10.64534       -2.47093
S          4.37483       11.04403       -4.97877
C          2.78755       11.57958       -5.21513
F          2.32408       11.85252       -6.40977
C          2.05319       11.71601       -4.05074
C          0.68492       12.17167       -4.02840
C         -0.21307       11.93915       -5.00201
C         -1.60422       12.33489       -4.95402
C         -2.60652       11.75717       -5.63493
C         -3.95080       12.43372       -5.69536
O         -4.35095       13.35399       -5.01456
C         -4.67904       11.78135       -6.80255
C         -5.96912       12.05101       -7.23506
C         -6.47390       11.30896       -8.31642
C         -5.62080       10.39304       -8.99895
C         -6.11162        9.67428      -10.09528
C         -7.43857        9.81306      -10.47950
C         -8.29382       10.67196       -9.80317
C         -7.81057       11.43151       -8.73429
F         -7.90251        9.09010      -11.50690
C         -4.31088       10.16953       -8.54736
C         -3.87291       10.79798       -7.39272
C         -2.68450       10.58249       -6.51973
C         -2.09246        9.37623       -6.34802
C         -1.26560        9.07594       -5.22930
N         -0.62190        8.79360       -4.30297
C         -2.37193        8.24870       -7.17877
N         -2.60321        7.33680       -7.85713
H         -5.74430        0.86283        9.46363
H         -5.47208        3.45027        9.87208
H         -4.17641        6.56971        4.53918
H         -4.42931        4.35648        1.31828
H         -2.03354        7.47179       -0.12654
H         -0.67069        9.21133       -0.31845
H          0.15437       10.15167        4.67399
H          3.23993       13.51984        0.59147
H          3.75510       14.22983        3.08847
H          0.51491       10.84444       -1.51149
H          3.40942       11.56260       -0.85540
H          0.35680       12.69084       -3.12984
H          0.10107       11.40223       -5.89404
H         -1.82111       13.22069       -4.35376
H         -6.57297       12.79219       -6.71851
H         -5.48362        8.97589      -10.64226
H         -9.33285       10.74048      -10.11034
H         -8.49554       12.09873       -8.21454
H         -3.68041        9.46880       -9.08715
