161

C          0.57322       -1.78495        5.77629
C          1.58690       -0.88145        6.07353
C          1.31660        0.37297        5.48601
C          0.13695        0.35460        4.77046
S         -0.67731       -1.09446        4.79679
C         -0.06939        1.62846        4.19711
C          0.96607        2.45485        4.56967
C          1.91520        1.70463        5.38953
C          3.08199        2.13409        5.91615
C          3.54392        3.46626        5.72405
N          3.92263        4.55253        5.56900
C          3.92853        1.26426        6.67403
N          4.60480        0.56963        7.28272
C          0.80132        3.75456        4.04885
C         -0.37604        3.86534        3.29873
S         -1.17108        2.32219        3.17240
C         -0.85952        5.05745        2.61356
S          0.31388        6.15186        1.98515
C         -2.15047        5.51730        2.35118
C         -3.41202        4.91264        2.81311
O         -3.50903        4.03618        3.66994
C         -4.58793        5.51321        2.20407
C         -5.89552        5.11054        2.30370
N         -6.67361        5.98147        1.58471
C         -8.11430        5.88315        1.45643
C         -8.84016        6.62347        2.56489
C         -5.87321        6.94367        1.01889
C         -4.57151        6.67807        1.38193
C         -3.35566        7.42231        1.05223
O         -3.36890        8.47509        0.41812
C         -2.13171        6.75462        1.54283
C         -0.84746        7.23221        1.35150
C         -0.39068        8.45667        0.78683
C         -0.06227        8.55651       -0.51069
C          0.37532        9.82005       -1.13334
C          1.36841        9.80510       -2.09855
C          1.82806       11.01908       -2.65732
C          1.09244       12.20272       -2.61847
C          0.19802       12.23453       -1.53771
C         -0.13310       11.07455       -0.79052
C          1.33033       13.43089       -3.54906
C          1.33264       14.78013       -2.80799
C          0.14855       15.52109       -2.60337
C          0.14231       16.69154       -1.82271
C          1.30930       17.13007       -1.20415
C          2.48210       16.40195       -1.37313
C          2.49639       15.24122       -2.17267
C          1.44700       13.42937       -4.95534
C          1.30546       12.18851       -5.93018
C          0.88344       12.30693       -7.26841
C          0.84201       11.19543       -8.16811
C          1.19702        9.91459       -7.76535
C          1.59691        9.74906       -6.47305
C          1.66811       10.87048       -5.62875
C          1.71809       14.80600       -5.64139
C          3.01089       15.33375       -5.79186
C          3.25402       16.62969       -6.36718
C          2.22419       17.47574       -6.83799
C          0.94609       16.87351       -6.77140
C          0.69444       15.59407       -6.18206
C          2.43755       18.91742       -7.33671
C          3.69541       19.56117       -7.40138
C          3.86909       20.90397       -7.87604
C          2.78873       21.68662       -8.32033
C          1.52203       21.10056       -8.18942
C          1.36503       19.75099       -7.74274
C          3.00561       23.06167       -8.96747
C          2.85373       24.20212       -7.97801
C          1.57967       24.78082       -7.78220
C          1.37677       25.79461       -6.83407
C          2.43836       26.23483       -6.04936
C          3.70931       25.69397       -6.24637
C          3.91929       24.68872       -7.20647
C          3.29109       23.26897      -10.32670
C          3.11227       22.13020      -11.41235
C          2.73833       20.80693      -11.14218
C          2.65633       19.77647      -12.08621
C          2.96332       20.02707      -13.40260
C          3.25731       21.33132      -13.76464
C          3.27195       22.36103      -12.79709
C          3.92411       24.64093      -10.79544
C          4.93023       24.67264      -11.79034
C          5.56494       25.85682      -12.23067
C          5.32184       27.07270      -11.60235
C          4.34855       27.07467      -10.60406
C          3.62430       25.90598      -10.27142
C          6.19913       28.22879      -11.89364
C          5.90661       29.53688      -11.82986
C          6.98093       30.59418      -11.81196
O          8.12597       30.50253      -12.19642
C          6.35828       31.76572      -11.14311
C          6.94584       32.98161      -10.83428
C          6.19442       33.91120      -10.09318
C          4.89850       33.54960       -9.60860
C          4.19000       34.44521       -8.79480
C          4.71635       35.70112       -8.51552
C          5.94356       36.08142       -9.03873
C          6.68992       35.19527       -9.81261
F          6.42322       37.30995       -8.80100
F          4.01730       36.54706       -7.74644
C          4.32345       32.31985       -9.97271
C          5.02946       31.46715      -10.80448
C          4.66004       30.23139      -11.53130
C          3.48216       30.04874      -12.17260
C          3.37411       29.15049      -13.27950
N          3.30354       28.48732      -14.22955
C          2.34571       30.86212      -11.92105
N          1.42726       31.53149      -11.68603
H          0.49603       -2.82052        6.08153
H          2.44432       -1.15327        6.67642
H          1.47766        4.58651        4.20140
H         -6.33991        4.27197        2.83178
H         -8.37253        4.81651        1.47855
H         -8.39708        6.27439        0.47276
H         -8.56972        6.22541        3.54875
H         -9.92354        6.52523        2.44398
H         -8.58825        7.68958        2.55575
H         -6.29126        7.74328        0.41440
H         -0.32371        9.31348        1.44981
H         -0.10452        7.68225       -1.15922
H          1.82539        8.86566       -2.40739
H          2.78864       10.99897       -3.16369
H         -0.24789       13.16993       -1.21333
H         -0.81884       11.17503        0.04687
H         -0.79512       15.17687       -3.01945
H         -0.77897       17.25542       -1.67774
H          1.30447       18.02849       -0.58829
H          3.38944       16.72420       -0.86804
H          3.42627       14.69193       -2.27621
H          0.58037       13.26682       -7.67729
H          0.53360       11.34504       -9.20082
H          1.17895        9.06360       -8.44326
H          1.88912        8.77383       -6.08136
H          2.09315       10.58939       -4.71022
H          3.86481       14.75187       -5.44893
H          4.29263       16.95108       -6.41478
H          0.07661       17.39050       -7.16811
H         -0.33256       15.23526       -6.15598
H          4.59835       19.03707       -7.09485
H          4.87706       21.31587       -7.91578
H          0.64311       21.63528       -8.54480
H          0.34895       19.36717       -7.76006
H          0.73676       24.46461       -8.39290
H          0.39073       26.23672       -6.70547
H          2.27642       26.99583       -5.28773
H          4.54021       26.05417       -5.64338
H          4.92343       24.30139       -7.35226
H          2.46454       20.46178      -10.17173
H          2.35408       18.78518      -11.75740
H          2.93706       19.22564      -14.13345
H          3.46660       21.56142      -14.80586
H          3.41469       23.35895      -13.19984
H          5.27661       23.75932      -12.26857
H          6.28448       25.79212      -13.04588
H          4.14315       27.96584      -10.01739
H          2.84898       26.04748       -9.53350
H          7.23540       27.94691      -12.09257
H          7.95711       33.19858      -11.16905
H          3.21808       34.18790       -8.38135
H          7.64879       35.52912      -10.20046
H          3.32668       32.06339       -9.62238
