89

C         -5.77669       18.33177       -1.22255
C         -4.40017       18.39211       -1.03444
C         -3.81149       17.13473       -1.28961
C         -4.75785       16.20150       -1.64954
S         -6.32163       16.75975       -1.70078
C         -4.11270       14.97383       -1.89514
C         -2.75989       15.12236       -1.69445
C         -2.48836       16.50553       -1.29374
C         -1.30196       17.07204       -0.99734
C         -0.08952       16.33220       -1.04333
N          0.90333       15.73440       -1.07845
C         -1.20090       18.43840       -0.61799
N         -1.12228       19.55404       -0.31048
C         -2.06776       13.91521       -1.94388
C         -2.94670       12.89761       -2.32966
S         -4.59402       13.46131       -2.35813
C         -2.59572       11.54073       -2.69372
S         -3.80272       10.36071       -3.17523
C         -2.57249        9.29606       -3.46694
C         -1.33705        9.82470       -3.16549
N         -1.33252       11.11923       -2.72032
C         -0.21659        8.85594       -3.48500
C         -1.05707        7.71792       -4.05777
C         -2.40566        8.00775       -4.00787
S         -3.40235        6.83549       -4.62123
C         -2.02120        5.86168       -5.05862
C         -0.82571        6.46535       -4.66396
C         -2.26157        4.63192       -5.73206
C         -1.37165        4.12526       -6.60229
C         -1.54171        2.86411       -7.35440
S         -3.23266        2.43703       -7.76387
C         -3.05013        1.66770       -9.32503
C         -3.98304        1.76497      -10.33181
S         -3.51276        0.88004      -11.72098
C         -2.06642        0.35693      -10.96528
C         -1.93962        0.86671       -9.69373
S         -0.56511        0.54842       -8.65230
C         -0.44197        2.08294       -7.75096
C          0.95143        2.42499       -7.44202
C          1.68700        3.16759       -8.28353
C          3.04204        3.48560       -7.98721
S          3.69381        4.97493       -8.66843
C          5.10942        4.66194       -7.86888
C          5.07872        3.46909       -7.18495
N          3.88749        2.79816       -7.21790
C          6.37429        3.20985       -6.43818
C          7.10061        4.51023       -6.78271
C          6.33829        5.30055       -7.62040
S          6.99812        6.76753       -8.00235
C          8.38440        6.43000       -6.99469
C          8.30893        5.15659       -6.42680
C          9.32653        7.48133       -6.84214
C         10.63048        7.27995       -6.59982
C         11.52086        8.38450       -6.42522
C         12.87357        8.46349       -6.77014
C         13.41321        9.73059       -6.45849
C         12.47587       10.54908       -5.87406
S         10.98786        9.86432       -5.65420
C         13.05957       11.80009       -5.59708
C         14.37629       11.77480       -6.00212
C         14.67828       10.45680       -6.56890
C         15.84537       10.01199       -7.06825
C         16.99989       10.83915       -7.10561
N         17.94450       11.51709       -7.13552
C         15.98864        8.69576       -7.58773
N         16.10308        7.62068       -8.00792
C         15.01592       13.00700       -5.75007
C         14.12978       13.90436       -5.16478
S         12.54966       13.23628       -4.93405
H         -6.49843       19.12862       -1.10613
H         -3.89776       19.30306       -0.73524
H         -0.99703       13.75214       -1.87170
H          0.31303        8.53951       -2.58270
H          0.46819        9.25935       -4.23449
H          0.14940        6.02251       -4.82389
H         -3.20396        4.12882       -5.52904
H         -0.44683        4.66119       -6.80005
H         -4.91554        2.31335      -10.32676
H         -1.38019       -0.28770      -11.49695
H          1.35589        2.03217       -6.51250
H          1.25746        3.55453       -9.20384
H          6.90495        2.34413       -6.84384
H          6.20966        3.11317       -5.36255
H          9.05082        4.75854       -5.74471
H          8.93628        8.49226       -6.94223
H         11.05043        6.27811       -6.57292
H         13.39640        7.64013       -7.24278
H         16.04487       13.26752       -5.96356
H         14.32154       14.92386       -4.85697
