84

C         -3.83171       -1.33636        4.96105
C         -4.68326       -1.94359        4.05168
C         -4.14516       -2.63105        2.96919
C         -2.74848       -2.74482        2.78545
C         -1.88371       -2.12389        3.72054
N         -0.53082       -2.18983        3.62722
C          0.20348       -1.54660        4.56245
C         -0.37537       -0.85765        5.60232
N         -1.71093       -0.78272        5.74409
C         -2.45699       -1.40778        4.81376
C         -2.23964       -3.54159        1.63330
S         -3.07177       -4.99511        1.16355
C         -1.99787       -5.37422       -0.13075
C         -1.00049       -4.42997       -0.17672
C         -1.17930       -3.42603        0.78543
C         -0.13683       -2.46218        0.61919
C          0.79222       -2.78002       -0.38886
C          1.95850       -1.97791       -0.75305
O          2.25884       -0.90655       -0.23879
O          2.68357       -2.57457       -1.74498
C          3.84079       -1.85577       -2.16867
S          0.46047       -4.28137       -1.23403
C         -2.17170       -6.52277       -1.00535
C         -1.72547       -6.68875       -2.32190
C         -2.07743       -7.95383       -2.85256
C         -2.80409       -8.68688       -1.94672
S         -3.04703       -7.94455       -0.48158
C         -3.14775       -9.92089       -2.53877
C         -2.63384       -9.97217       -3.81898
C         -1.92440       -8.72899       -4.09695
C         -1.26748       -8.34175       -5.20443
C         -0.60863       -7.07653       -5.26366
N         -0.07103       -6.05024       -5.33037
C         -1.13973       -9.10375       -6.51342
N         -1.03375       -9.73588       -7.59933
C         -2.92326      -11.20304       -4.44295
C         -3.64909      -12.04345       -3.59008
S         -3.98564      -11.27171       -2.06137
C         -4.10851      -13.37941       -3.80891
C         -5.32071      -13.54859       -4.37004
C         -5.84040      -14.86003       -4.65162
C         -5.11279      -16.08843       -4.29926
C         -3.91119      -16.11055       -3.72424
S         -3.01788      -14.66819       -3.32720
C         -5.93421      -17.16710       -4.68962
C         -7.09298      -16.68263       -5.24546
C         -7.96744      -17.68666       -5.68789
C         -7.41052      -18.93358       -5.43879
S         -5.85396      -18.83512       -4.67076
C         -7.02168      -15.24147       -5.21674
C         -8.09503      -14.39211       -5.66492
C         -7.97863      -13.45500       -6.62123
C         -9.06426      -12.56616       -7.11158
C        -10.34648      -12.61814       -6.53294
C        -11.36707      -11.79412       -6.98451
C        -11.11774      -10.90439       -8.02011
C         -9.86832      -10.81875       -8.61124
N         -9.71309       -9.92571       -9.60678
C         -8.49206       -9.85614      -10.17068
C         -7.45001      -10.65047       -9.75354
N         -7.58817      -11.55121       -8.75174
C         -8.80693      -11.65369       -8.16317
H         -4.24448       -0.79635        5.80973
H         -5.76004       -1.88296        4.18722
H         -4.84105       -3.08809        2.26829
H          1.27912       -1.59942        4.44520
H          0.21673       -0.34645        6.35157
H         -0.03154       -1.56188        1.21466
H          4.29094       -2.40566       -3.00051
H          4.57194       -1.79804       -1.35686
H          3.56963       -0.85688       -2.52348
H         -1.18362       -5.91922       -2.85390
H         -2.62055      -11.50766       -5.43819
H         -5.94000      -12.69399       -4.62693
H         -3.43334      -17.05549       -3.48620
H         -8.92631      -17.53688       -6.16702
H         -7.82804      -19.90400       -5.67071
H         -9.03847      -14.59882       -5.17061
H         -7.01399      -13.32100       -7.11223
H        -10.57850      -13.29822       -5.71980
H        -12.35345      -11.84584       -6.53059
H        -11.91619      -10.25874       -8.37628
H         -8.37879       -9.13675      -10.97417
H         -6.46940      -10.58928      -10.21117
