75

C         -3.11389       -3.65749       -0.23150
C         -2.63175       -3.29672        1.02141
C         -2.47203       -1.89753        1.10366
C         -2.83706       -1.27781       -0.07333
S         -3.36793       -2.29838       -1.27211
C         -2.65308        0.10926        0.06620
C         -2.17149        0.37630        1.32561
C         -2.02798       -0.88401        2.06363
C         -1.59265       -1.06224        3.32208
C         -1.19001        0.02215        4.14983
N         -0.86688        0.90378        4.82868
C         -1.50191       -2.36492        3.89834
N         -1.43093       -3.42769        4.36120
C         -1.97187        1.76113        1.51627
C         -2.32930        2.50471        0.38255
S         -2.87113        1.43850       -0.89457
C         -2.34032        3.96285        0.15666
C         -2.67846        4.59110       -1.06710
C         -2.68840        5.99675       -1.26644
C         -2.41221        6.93826       -0.25033
C         -2.15637        6.34507        1.01181
C         -2.05128        4.88712        1.19309
N         -1.62052        4.67122        2.44546
O         -1.54836        5.90012        3.05706
N         -1.94766        6.91036        2.21155
C         -2.24215        8.37725       -0.51921
C         -1.29524        9.28989       -0.08024
O         -0.36384        9.02627        0.88650
C          0.53123        7.94014        0.65745
C         -1.47858       10.61795       -0.67719
O         -0.70280       11.72605       -0.47973
C          0.15790       11.66707        0.65680
C         -2.57426       10.69640       -1.54767
S         -3.32000        9.13743       -1.62413
C         -3.13926       11.81030       -2.39333
C         -2.37756       12.80989       -3.05788
C         -2.92233       13.81818       -3.94583
C         -4.29755       13.95782       -4.25476
C         -5.09137       12.98415       -3.59079
C         -4.53308       11.94667       -2.68111
N         -5.57435       11.22309       -2.23749
O         -6.70385       11.72827       -2.83346
N         -6.41620       12.78210       -3.66273
C         -4.87246       14.94860       -5.20759
C         -4.34765       15.45702       -6.40780
C         -5.26465       16.32612       -7.07507
C         -6.42877       16.46580       -6.35339
S         -6.43723       15.67559       -4.89222
C         -7.32685       17.28774       -7.07611
C         -6.72589       17.68651       -8.25199
C         -5.37584       17.11065       -8.31951
C         -4.46230       17.28009       -9.29533
C         -4.72020       18.08554      -10.44856
N         -4.93377       18.74445      -11.37292
C         -3.17968       16.67514       -9.21461
N         -2.13158       16.17602       -9.13650
C         -7.57415       18.51624       -9.02037
C         -8.79810       18.68370       -8.38264
S         -8.88311       17.84240       -6.87011
H         -3.33236       -4.65147       -0.59765
H         -2.41892       -4.02731        1.79181
H         -1.60471        2.21192        2.42895
H         -2.93298        3.98666       -1.93852
H         -2.90450        6.34838       -2.27693
H          0.57266        7.60159       -0.38065
H          0.29649        7.09782        1.31229
H          1.53093        8.25246        0.97444
H          0.65383       12.63559        0.76471
H          0.95697       10.92860        0.52447
H         -0.41217       11.48531        1.57537
H         -1.29468       12.81467       -2.91472
H         -2.21487       14.51162       -4.40657
H         -3.37855       15.16437       -6.78742
H         -7.35664       18.97899       -9.97611
H         -9.65114       19.25717       -8.72424
