104

C          1.38939       -2.76048       -7.20946
C          2.45925       -2.35506       -8.04104
C          2.20441       -2.19179       -9.51964
C          3.75851       -2.17490       -7.49791
C          4.93913       -1.85114       -8.37542
C          3.96378       -2.34254       -6.12167
C          2.89022       -2.73328       -5.33845
C          1.60258       -2.94666       -5.84869
C          0.73790       -3.43434       -4.73270
C         -0.61441       -3.38854       -4.68323
C         -1.40836       -2.89920       -5.75941
N         -2.05747       -2.50590       -6.63728
C         -1.34416       -3.77277       -3.51783
N         -1.92251       -4.10525       -2.57390
C          1.66399       -3.82463       -3.64115
C          2.95055       -3.10360       -3.91338
O          3.84029       -2.82725       -3.13727
C          1.52256       -4.82272       -2.75157
C          2.58083       -5.36601       -1.96315
C          3.07551       -4.98797       -0.71155
C          4.03099       -5.91867       -0.22840
C          4.23424       -6.93851       -1.12998
S          3.34325       -6.83311       -2.52560
C          5.14118       -7.86816       -0.58019
C          5.52044       -7.44536        0.67230
C          4.84814       -6.17328        0.96691
C          4.94537       -5.42562        2.08383
C          5.77318       -5.81248        3.17215
N          6.44697       -6.13594        4.06167
C          4.21245       -4.21703        2.23730
N          3.60686       -3.23648        2.37301
C          6.39678       -8.37607        1.28593
C          6.65284       -9.46754        0.44648
S          5.77169       -9.32723       -1.04665
C          7.46307      -10.63835        0.71429
C          8.20288      -11.42392       -0.13364
C          8.56235      -11.43462       -1.53460
O          8.30570      -10.58870       -2.37367
N          9.30480      -12.58650       -1.70334
C          9.89319      -12.98561       -2.95629
C          9.52299      -13.28540       -0.53189
O         10.20128      -14.28884       -0.39419
C          8.80236      -12.55014        0.48375
C          8.57411      -12.64093        1.83381
S          7.58084      -11.29838        2.31422
C          9.00209      -13.63127        2.79984
C          9.23161      -13.45520        4.16984
C          9.60207      -14.67002        4.79023
C          9.61859      -15.70886        3.88743
S          9.22639      -15.29119        2.33578
C          9.89181      -16.91130        4.56836
C         10.04158      -16.63208        5.90508
C          9.92495      -15.18985        6.12032
C         10.10981      -14.50946        7.26961
C         10.46288      -15.17729        8.47641
N         10.75202      -15.75696        9.43755
C          9.99611      -13.09394        7.32196
N          9.90417      -11.93801        7.36074
C         10.17081      -17.81038        6.66263
C         10.15244      -18.95207        5.85369
S          9.97183      -18.52132        4.17251
C         10.16173      -20.33473        6.20705
C         10.74267      -20.82285        7.31206
C         10.27338      -22.14993        7.83727
O          9.74642      -23.05157        7.22253
C         10.48971      -22.07583        9.29884
C         11.12559      -20.87158        9.63080
C         11.24191      -20.51019       10.96147
C         10.80700      -21.40255       11.96129
C         10.26351      -22.66668       11.60579
C         10.07990      -22.99125       10.25134
C          9.93777      -23.70618       12.64539
C         10.97142      -20.98668       13.40073
C         11.55087      -20.21456        8.37228
C         12.66001      -19.45734        8.22001
C         13.20139      -19.13911        6.93853
N         13.67713      -18.88283        5.91101
C         13.43935      -19.00887        9.32620
N         14.06904      -18.64427       10.22829
H          0.42440       -2.95322       -7.67005
H          1.13751       -2.05345       -9.72560
H          2.54966       -3.07765      -10.06168
H          2.71534       -1.30625       -9.91073
H          4.80798       -0.87704       -8.85508
H          5.06262       -2.62468       -9.14110
H          5.86927       -1.81593       -7.79802
H          4.94618       -2.22252       -5.67261
H          0.60136       -5.39673       -2.71059
H          2.71067       -4.11109       -0.19036
H          6.82442       -8.28977        2.27832
H          9.51575      -12.37621       -3.78084
H          9.66650      -14.04062       -3.13772
H         10.97927      -12.87499       -2.88325
H          9.11348      -12.49948        4.66685
H         10.21983      -17.85530        7.74213
H          9.54374      -20.99955        5.60082
H         11.65547      -19.54838       11.25298
H          9.62863      -23.93177        9.94610
H          9.46735      -23.26470       13.52763
H         10.85635      -24.22053       12.94684
H          9.23834      -24.45182       12.25317
H         11.20632      -19.91925       13.48155
H         11.78356      -21.55130       13.86697
H         10.04241      -21.14183       13.95743
