94

C          0.29984       -5.75237      -11.33119
C          1.49831       -5.12762      -11.42183
C          2.56213       -5.61356      -12.23718
N          3.41386       -6.01561      -12.91064
C          1.71796       -3.85105      -10.82194
N          1.85733       -2.77769      -10.39654
C         -0.19956       -6.85929      -12.20154
C         -1.60711       -6.83820      -12.16338
C         -2.41409       -7.74378      -12.83106
C         -1.78325       -8.72394      -13.59203
C         -0.37539       -8.76188      -13.67284
C          0.41981       -7.83098      -12.97418
Cl         0.44762       -9.95204      -14.62032
Cl        -2.78895       -9.88110      -14.38709
C         -2.08523       -5.79428      -11.24807
O         -3.23854       -5.47461      -11.05443
C         -0.85991       -5.29709      -10.55400
C         -1.06361       -4.84767       -9.30942
C         -0.04854       -4.73265       -8.24334
N          1.01940       -5.48272       -8.11631
C          1.55895       -5.04958       -6.93938
C          0.73350       -4.02528       -6.35690
C          1.34614       -3.53663       -5.09538
O          0.96798       -2.69912       -4.31593
C          2.60280       -4.31203       -5.06019
C          2.64476       -5.21027       -6.18726
N          3.81895       -5.89097       -6.18150
C          4.42947       -5.40775       -5.13285
C          3.71477       -4.38219       -4.34446
C         -0.28575       -3.73936       -7.15195
C         -1.29201       -2.73848       -7.05356
C         -1.05136       -1.52394       -6.53936
C         -2.08282       -0.56767       -6.45290
N         -1.76546        0.64984       -5.89223
C         -2.90919        1.39362       -5.84831
C         -3.41671        2.64021       -5.42116
C         -4.77023        2.60010       -5.72796
N         -5.06041        1.40753       -6.34800
C         -3.91389        0.67264       -6.39591
C         -3.42114       -0.58151       -6.80548
C         -5.84546        3.49600       -5.51938
C         -5.63555        4.66460       -4.90614
C         -6.76973        5.57583       -4.68620
N         -8.01851        5.20705       -4.55338
C         -8.66173        6.38221       -4.35097
C         -7.72963        7.48353       -4.37437
C         -8.48283        8.74543       -4.15852
O         -8.07631        9.88404       -4.09663
C         -9.87730        8.26242       -4.01483
C         -9.89554        6.82894       -4.14344
N        -11.16523        6.36359       -4.02003
C        -11.85402        7.45563       -3.83066
C        -11.10257        8.72990       -3.81190
C         -6.49355        7.04480       -4.58228
C         -5.23754        7.71462       -4.73073
C         -5.01319        8.63046       -5.68488
C         -3.73419        9.28813       -5.87815
C         -3.54239       10.49103       -6.44693
C         -2.28631       11.21802       -6.76690
C         -1.07216       11.06135       -6.18111
C          0.05127       11.87609       -6.49996
N          0.96557       12.53848       -6.76383
C         -0.82578       10.10570       -5.15126
N         -0.62364        9.32433       -4.31643
C         -2.65706       12.29161       -7.74564
C         -4.05521       12.36037       -7.81786
C         -4.67161       11.32532       -6.98691
O         -5.86696       11.20999       -6.82252
C         -4.75071       13.26005       -8.61336
C         -4.00901       14.14103       -9.39399
C         -2.60257       14.08597       -9.36966
C         -1.92599       13.15725       -8.55154
Cl        -1.63348       15.14199      -10.33812
Cl        -4.87701       15.26421      -10.37679
H         -3.49505       -7.69860      -12.73212
H          1.49994       -7.91277      -13.04612
H         -2.08574       -4.67778       -8.97531
H          5.43767       -5.71042       -4.81443
H          4.04146       -3.83237       -3.48454
H         -2.27626       -2.99193       -7.43360
H         -0.06416       -1.26121       -6.16500
H         -0.87247        0.96659       -5.53470
H         -2.87758        3.44019       -4.93489
H         -5.94963        1.07232       -6.69795
H         -3.97173       -1.38880       -7.26559
H         -6.84613        3.22112       -5.85292
H         -4.66029        4.97958       -4.55891
H        -12.94490        7.47651       -3.68770
H        -11.47063        9.72603       -3.67844
H         -4.45236        7.43860       -4.02995
H         -5.81869        8.88861       -6.37114
H         -2.89181        8.68419       -5.55279
H         -5.83749       13.25896       -8.62536
H         -0.84165       13.14301       -8.58896
