116

C          9.07280       -4.78009        4.67686
C         10.31979       -5.23246        4.38107
C         11.39366       -4.32400        4.06569
N         12.21467       -3.53667        3.86370
C         10.71136       -6.57706        4.64646
N         11.04869       -7.66096        4.88628
C          8.91544       -3.36952        5.07122
C          8.51062       -3.38102        6.41614
C          8.71099       -2.27739        7.21942
C          9.24513       -1.12628        6.61413
C          9.46558       -1.06969        5.21738
C          9.27887       -2.20335        4.42770
Cl        10.06538        0.34056        4.42101
Cl         9.68569        0.18833        7.64542
C          7.93930       -4.72513        6.73441
O          7.45384       -5.08717        7.78253
C          8.05370       -5.50366        5.43531
C          7.10812       -6.38083        5.06091
C          6.83761       -6.92992        3.73774
C          7.72318       -7.60325        2.96837
C          7.03380       -8.29256        1.88679
C          7.68786       -8.88553        0.78075
N          8.22400       -9.32486       -0.14941
C          5.70326       -8.17112        2.03783
C          5.50861       -7.23290        3.13936
C          4.36730       -6.54066        3.29201
C          2.98199       -6.96669        3.07174
C          2.21506       -5.87157        3.26112
C          3.05956       -4.72250        3.44721
C          4.34558       -5.09676        3.49032
C          2.58449       -3.39598        3.42546
N          2.19299       -2.30834        3.38740
C          2.39079       -8.27205        2.99921
C          1.65950       -8.76881        4.00441
C          0.92828       -9.96679        3.83892
S          0.51971      -10.86599        5.25769
C          0.40041      -10.55069        2.67945
C         -0.32150      -11.72166        2.96578
C         -1.14469      -12.74782        2.30776
C         -1.32941      -12.99312        0.98558
C         -2.24039      -14.08203        0.44817
N         -1.82570      -15.43900        0.77892
C         -0.63175      -12.23092       -0.11724
N         -1.55718      -11.47548       -0.95502
C         -0.32078      -11.93703        4.32273
C         -1.12659      -13.03659        4.60482
S         -1.54003      -13.82126        5.98784
C         -1.66742      -13.51514        3.43915
C         -2.53628      -14.58297        3.71407
C         -2.49571      -14.93774        5.06377
C         -3.19214      -16.00750        5.67699
C         -3.26017      -16.14974        7.00358
C         -4.17955      -17.02983        7.64995
C         -3.74113      -17.83656        8.63998
C         -4.85413      -18.54700        9.21626
C         -4.70922      -19.50062       10.24812
N         -4.55786      -20.27545       11.10215
C         -5.98700      -18.16026        8.62251
C         -5.66046      -17.14104        7.60434
C         -6.55243      -16.46676        6.83032
C         -8.02613      -16.56466        6.88598
C         -8.52379      -15.81340        5.87753
C         -7.44486      -15.20017        5.14795
C         -6.28682      -15.52829        5.73434
C         -7.59638      -14.36306        4.01150
N         -7.70230      -13.69576        3.07098
C         -8.88204      -17.15305        7.87340
C         -9.90782      -17.94769        7.54527
C        -10.75020      -18.54692        8.54193
C        -11.99956      -18.99528        8.35207
C        -12.92123      -19.57782        9.34292
C        -12.56519      -20.31697       10.41836
C        -13.53512      -20.94275       11.25442
N        -14.33986      -21.44001       11.92059
C        -11.21770      -20.62314       10.75431
N        -10.11294      -20.84588       11.01650
C        -14.29942      -19.35534        8.81133
C        -14.19790      -18.92738        7.47745
C        -12.79186      -18.74071        7.09791
O        -12.41067      -18.40011        5.99750
C        -15.29181      -18.65409        6.66987
C        -16.55957      -18.79584        7.23070
C        -16.69611      -19.18339        8.57821
C        -15.56534      -19.45817        9.37179
Cl       -18.24528      -19.32932        9.33326
Cl       -17.92093      -18.46148        6.22237
H          8.52160       -2.32222        8.28750
H          9.50977       -2.19238        3.36581
H          6.35335       -6.65352        5.80533
H          8.77204       -7.75530        3.15931
H          4.95497       -8.48283        1.32440
H          1.13144       -5.84745        3.30754
H          5.19930       -4.43926        3.43756
H          2.49538       -8.80005        2.05834
H          1.57050       -8.24067        4.95357
H          0.50591      -10.09561        1.70649
H         -2.29141      -14.04207       -0.64588
H         -3.26516      -13.89990        0.79168
H         -0.98463      -15.67994        0.25986
H         -2.54766      -16.08549        0.46242
H         -0.07261      -12.93867       -0.74139
H          0.11679      -11.53806        0.25973
H         -2.13615      -12.11326       -1.49869
H         -1.02475      -10.95161       -1.64847
H         -3.13608      -15.11436        2.98893
H         -3.79115      -16.64368        5.02974
H         -2.63946      -15.57144        7.68534
H         -2.71694      -17.93438        8.97596
H         -6.96686      -18.56406        8.84069
H         -9.56884      -15.61268        5.68209
H         -5.35215      -15.14409        5.38712
H         -8.65985      -16.90737        8.91030
H        -10.10062      -18.17420        6.49790
H        -10.28892      -18.59704        9.52573
H        -15.15405      -18.32567        5.64342
H        -15.71873      -19.72932       10.41188
