104

C          1.00399       -3.47148        3.49369
C          1.84768       -2.41370        3.46498
C          1.48934       -1.14378        3.99822
N          1.17402       -0.11853        4.44833
C          3.21962       -2.54234        3.08520
N          4.34772       -2.63852        2.84699
C         -0.25939       -3.53357        4.27061
C         -0.39045       -4.84612        4.76246
C         -1.45804       -5.24838        5.54823
C         -2.46056       -4.30907        5.80924
C         -2.37161       -3.00170        5.28326
C         -1.26053       -2.60655        4.52008
Cl        -3.63164       -1.83703        5.50444
Cl        -3.81743       -4.82954        6.74527
C          0.66179       -5.71659        4.18153
O          0.84122       -6.89144        4.41742
C          1.33244       -4.85925        3.14074
C          1.67190       -5.45284        1.97957
C          1.57606       -4.74704        0.74139
C          0.60423       -4.74453       -0.26507
C          0.62942       -3.47797       -0.99069
C          1.93038       -2.97539       -0.89877
S          2.92814       -3.89132        0.11996
N          2.43666       -1.87376       -1.47506
C          1.54262       -1.19296       -2.18539
C          0.20272       -1.52054       -2.34860
C         -0.32508       -2.67517       -1.71509
C         -1.83132       -2.90457       -1.74795
C         -2.49536       -2.99945       -0.37681
C         -0.55927       -0.46746       -3.11764
C          0.44692        0.41549       -3.86624
S          1.99783        0.34188       -2.94837
C         -0.37091       -5.86653       -0.49582
N         -0.99525       -6.07725       -1.71031
C         -1.90737       -7.08064       -1.55035
C         -2.97786       -7.75434       -2.18756
C         -3.41358       -8.69531       -1.25946
N         -2.57810       -8.66245       -0.16980
C         -1.71416       -7.62181       -0.32922
C         -0.70061       -6.91085        0.35132
C         -4.51899       -9.59107       -1.28590
C         -4.82553      -10.45096       -0.29149
C         -5.99465      -11.27767       -0.33033
C         -6.75915      -11.82276        0.70801
C         -8.11780      -12.13166        0.24820
C         -8.11016      -12.20406       -1.14838
S         -6.61755      -11.83019       -1.83721
N         -9.13010      -12.48073       -1.97990
C        -10.28151      -12.67534       -1.35135
C        -10.47890      -12.63447        0.02122
C         -9.39361      -12.33765        0.88204
C         -9.66399      -12.10447        2.35279
C        -10.00555      -10.64496        2.63815
C        -11.92807      -12.81318        0.39944
C        -12.64099      -13.48342       -0.78231
S        -11.77163      -12.95718       -2.27198
C         -6.28738      -11.84694        2.08135
C         -5.55141      -12.81478        2.66283
C         -5.12943      -12.97653        4.08265
C         -4.67024      -12.00968        4.91605
C         -4.13148      -12.28645        6.20786
N         -3.69350      -12.52563        7.25575
C         -4.58509      -10.65073        4.49311
N         -4.50707       -9.55830        4.11174
C         -5.02993      -14.44595        4.33354
C         -5.00269      -15.09298        3.08842
C         -5.17642      -14.11483        1.99575
O         -5.01013      -14.34224        0.81787
C         -4.91394      -16.47098        2.95011
C         -4.89309      -17.24353        4.11360
C         -4.93967      -16.62199        5.37675
C         -5.00431      -15.21956        5.48960
Cl        -4.94941      -17.53644        6.84671
Cl        -4.86136      -18.96197        3.93441
H         -1.53117       -6.27149        5.90469
H         -1.22492       -1.60081        4.11031
H          1.75277       -6.53713        1.93003
H         -2.06642       -3.78251       -2.35330
H         -2.32459       -2.07100       -2.25931
H         -2.31699       -3.96540        0.10042
H         -3.58165       -2.89265       -0.48203
H         -2.14578       -2.21451        0.30156
H         -1.13655        0.14270       -2.41258
H         -1.24974       -0.91227       -3.84181
H          0.09224        1.44672       -3.95733
H          0.62635        0.02660       -4.87423
H         -0.83593       -5.58928       -2.58224
H         -3.40608       -7.55142       -3.16219
H         -2.59269       -9.24086        0.65708
H         -0.34496       -7.12875        1.34577
H         -5.15206       -9.51490       -2.16914
H         -4.24403      -10.48918        0.61966
H         -8.80245      -12.40782        2.95298
H        -10.48896      -12.73941        2.69260
H         -9.14589       -9.99194        2.45470
H        -10.30430      -10.52273        3.68450
H        -10.83154      -10.28931        2.01185
H        -12.37400      -11.83210        0.60169
H        -12.04474      -13.44138        1.28701
H        -13.70203      -13.22176       -0.82390
H        -12.55682      -14.57324       -0.71108
H         -6.61486      -10.99673        2.67402
H         -4.89848      -16.92872        1.96486
H         -5.06167      -14.78256        6.48262
