133

C          2.15457        4.44307        6.26179
C          2.35470        5.78106        6.29732
C          2.21076        6.54473        7.49142
N          2.08696        7.16112        8.46711
C          2.91692        6.48636        5.19429
N          3.44403        7.07184        4.34047
C          2.05277        3.56602        7.45094
C          2.67031        2.34319        7.13598
C          2.83265        1.32426        8.05746
C          2.29534        1.50899        9.33929
C          1.58449        2.70693        9.64763
C          1.47971        3.73854        8.69825
C          0.98363        2.84259       10.90575
C          1.09736        1.83329       11.86123
C          1.82479        0.68116       11.57615
C          2.41826        0.51758       10.32301
C          2.97871        2.28688        5.68907
O          3.49949        1.37227        5.08821
C          2.38658        3.54636        5.12888
C          1.85909        3.51403        3.89517
C          0.81623        4.43023        3.42517
C          1.14189        5.54316        2.64720
C          0.12576        6.39015        2.22609
C         -1.21303        6.14095        2.59597
C         -1.54999        5.02888        3.34893
C         -0.52844        4.16885        3.75786
C         -2.05583        7.18269        2.06331
C         -1.27014        8.08002        1.31636
C          0.21232        7.64981        1.34832
C          1.09595        8.76770        1.95984
C          0.74711        9.18448        3.38965
C          0.63610        7.29074       -0.10559
C          2.08793        6.87268       -0.31788
C         -1.84368        9.17333        0.67347
C         -3.22164        9.40331        0.80736
C         -3.98593        8.49989        1.58574
C         -3.41402        7.38585        2.20479
C         -3.87443       10.53444        0.14563
S         -5.49355       10.43056       -0.43682
C         -5.52654       12.05775       -1.00312
C         -4.30101       12.61034       -0.76353
C         -3.38068       11.77998       -0.11442
S         -1.82661       12.66684        0.18971
C         -2.66637       14.02126       -0.62010
N         -3.92231       13.89292       -1.05605
C         -6.71978       12.56019       -1.57720
C         -6.69660       13.56662       -2.46216
C         -7.91173       14.12252       -3.05737
C         -7.85189       14.60593       -4.37001
C         -9.01023       15.09789       -4.94887
C        -10.21462       15.14972       -4.20928
C        -10.27039       14.72591       -2.89556
C         -9.11068       14.21455       -2.32142
C        -11.25064       15.73202       -5.02144
C        -10.70023       16.09759       -6.25833
C         -9.22692       15.65589       -6.36166
C         -8.29961       16.84513       -6.71219
C         -8.32283       18.00657       -5.71899
C         -9.15445       14.52178       -7.43253
C         -7.77668       13.94753       -7.75260
C        -11.46810       16.75742       -7.20202
C        -12.83673       16.95439       -6.96733
C        -13.37956       16.56812       -5.72511
C        -12.58579       15.96696       -4.74198
C        -13.70876       17.64785       -7.93559
C        -13.63698       17.61367       -9.27747
C        -14.29907       18.49890      -10.26118
C        -15.57445       18.95246      -10.20954
C        -16.15222       19.71715      -11.26421
N        -16.61476       20.34067      -12.12338
C        -16.44973       18.64555       -9.12595
N        -17.15219       18.40701       -8.23876
C        -13.32900       18.65191      -11.38679
C        -12.32503       17.68816      -11.22311
C        -12.60332       16.85674      -10.05378
O        -12.10581       15.77363       -9.83425
C        -11.18970       17.60012      -12.00873
C        -11.05062       18.51290      -13.05211
C        -12.07634       19.47155      -13.29486
C        -13.20632       19.54316      -12.44400
C        -11.92946       20.34383      -14.38370
C        -10.79246       20.29384      -15.19500
C         -9.77619       19.38212      -14.92379
C         -9.90456       18.49425      -13.85797
H          3.33003        0.40196        7.77055
H          0.93488        4.64431        8.94912
H          0.41365        3.73624       11.15368
H          0.61958        1.95022       12.83078
H          1.92398       -0.09673       12.32910
H          2.97390       -0.39607       10.12159
H          2.04587        2.66449        3.23849
H          2.17539        5.74509        2.38717
H         -2.58233        4.81721        3.60805
H         -0.79135        3.28256        4.33246
H          1.03712        9.66363        1.32742
H          2.14774        8.45977        1.95845
H         -0.29699        9.49255        3.49002
H          1.37209       10.03188        3.69172
H          0.93079        8.37381        4.09876
H          0.45593        8.15273       -0.76152
H         -0.00603        6.48465       -0.48703
H          2.77860        7.69542       -0.11387
H          2.23442        6.57003       -1.35997
H          2.37297        6.01664        0.29374
H         -1.21883        9.82000        0.06695
H         -5.05528        8.65309        1.72068
H         -4.03302        6.70984        2.78424
H         -2.12471       14.95068       -0.74216
H         -7.65913       12.09581       -1.28742
H         -5.75876       13.99903       -2.80218
H         -6.91846       14.58471       -4.92288
H        -11.18317       14.79495       -2.31540
H         -9.14781       13.89622       -1.28262
H         -8.57174       17.24017       -7.70014
H         -7.26055       16.50474       -6.79475
H         -9.33571       18.38066       -5.54485
H         -7.72732       18.83942       -6.10726
H         -7.89140       17.71415       -4.75706
H         -9.56937       14.88929       -8.38110
H         -9.80147       13.68699       -7.12873
H         -7.15709       14.66893       -8.29315
H         -7.88746       13.06696       -8.39586
H         -7.23732       13.61963       -6.86347
H        -10.98602       17.08760       -8.11364
H        -14.43270       16.73654       -5.50783
H        -13.01682       15.68631       -3.78702
H        -14.42145       18.30488       -7.44177
H        -10.43096       16.85479      -11.78669
H        -13.94245       20.32062      -12.62427
H        -12.70443       21.07138      -14.61688
H        -10.69860       20.97230      -16.03933
H         -8.88505       19.35619      -15.54601
H         -9.10030       17.78745      -13.66205
