91

C         -3.62255        4.44240       -1.35449
C         -3.34936        3.42508       -0.43207
C         -2.38723        3.62186        0.54898
C         -1.68883        4.82935        0.61984
C         -1.95469        5.84359       -0.30040
C         -2.92183        5.65057       -1.28740
O         -2.06899        2.67071        1.47661
C         -2.71797        1.44446        1.44386
C         -2.21451        0.53636        2.53125
C         -3.67523        1.11699        0.54812
C         -4.05728        2.13178       -0.48156
O         -4.90661        1.91905       -1.33989
C         -4.31889       -0.16328        0.56202
C         -3.95982       -1.34582       -0.09693
C         -4.85167       -2.40300        0.19995
C         -5.86702       -1.98462        1.02912
S         -5.77565       -0.39270        1.49998
C         -6.73440       -3.07248        1.27156
C         -6.26510       -4.18438        0.60945
C         -5.03989       -3.82524       -0.11227
C         -4.26153       -4.61814       -0.87471
C         -4.57019       -5.99139       -1.08586
N         -4.80702       -7.11401       -1.24999
C         -3.08288       -4.12778       -1.49960
N         -2.11403       -3.72399       -1.99924
C         -7.09072       -5.31367        0.83694
C         -8.17074       -4.99872        1.66892
S         -8.13384       -3.31167        2.12581
C         -9.23177       -5.87675        2.13691
C         -9.78650       -6.98613        1.52845
C        -10.84080       -7.60081        2.31699
N        -11.53602       -8.70361        1.91304
C        -11.12634       -9.14611        0.68307
C        -11.83974      -10.34111        0.17031
O        -12.72778      -10.90309        0.79847
C        -11.45057      -10.86741       -1.15197
C        -10.48571      -10.30209       -1.87750
C         -9.75076       -9.11474       -1.40146
O         -8.87507       -8.63249       -2.10834
C        -10.11490       -8.55273       -0.07759
N         -9.39885       -7.44892        0.30491
C        -11.05630       -6.96083        3.52135
S         -9.98789       -5.61859        3.66373
C        -12.01286       -7.27345        4.56823
C        -13.26738       -7.87609        4.43176
C        -13.90871       -8.02324        5.68376
C        -13.12890       -7.53935        6.70884
S        -11.66606       -6.91844        6.24209
C        -13.80982       -7.71546        7.93042
C        -15.02610       -8.31001        7.68077
C        -15.16062       -8.54349        6.24027
C        -16.19037       -9.11125        5.58297
C        -17.35136       -9.56970        6.26539
N        -18.30067       -9.93294        6.82486
C        -16.17477       -9.27645        4.17127
N        -16.17265       -9.39992        3.01746
C        -15.75263       -8.51841        8.87294
C        -15.03587       -8.07259        9.98701
S        -13.49494       -7.39754        9.52934
C        -15.39506       -8.11570       11.36625
C        -16.06551       -7.10820       11.96318
O        -16.42801       -7.11158       13.30462
C        -16.14295       -8.21043       14.06887
C        -16.57997       -8.19094       15.39408
C        -16.33071       -9.28358       16.22661
C        -15.64052      -10.39287       15.73585
C        -15.19901      -10.41022       14.41135
C        -15.45557       -9.31412       13.57990
C        -15.01682       -9.30929       12.17610
O        -14.38531      -10.25272       11.71303
C        -16.52019       -5.84625       11.28183
H         -4.37491        4.29712       -2.12666
H         -0.93498        4.97888        1.38897
H         -1.40692        6.78207       -0.24854
H         -3.12805        6.44061       -2.00634
H         -1.40778        1.02468        3.09191
H         -1.79915       -0.38742        2.11832
H         -3.00577        0.30183        3.24892
H         -3.09332       -1.40575       -0.74410
H         -6.92898       -6.31018        0.44027
H        -11.99297      -11.74054       -1.49948
H        -10.19750      -10.68808       -2.84996
H        -13.66861       -8.17933        3.47125
H        -16.73278       -8.97178        8.96206
H        -17.11784       -7.32793       15.77818
H        -16.67580       -9.27032       17.25802
H        -15.44759      -11.24447       16.38442
H        -14.66182      -11.27617       14.02997
H        -16.42641       -5.87193       10.19346
H        -15.93932       -4.99516       11.65186
H        -17.57632       -5.66281       11.50760
