93

C          0.75652        5.41877        2.28765
C          1.39245        5.28965        3.48068
C          2.79601        5.47480        3.63074
N          3.94056        5.61733        3.76073
C          0.69585        5.01899        4.69125
N          0.12333        4.78747        5.67877
C          1.37616        5.84245        0.99366
C          0.35496        6.25583        0.13593
C          0.55421        6.70078       -1.16424
C          1.87579        6.71538       -1.65475
C          2.91276        6.29231       -0.81149
C          2.68521        5.84806        0.51969
S          4.43794        6.38358       -1.61697
C          3.73312        6.95994       -3.05789
C          2.36961        7.08814       -2.94842
C         -0.96227        6.07122        0.75523
O         -2.01146        6.43475        0.26778
C         -0.70641        5.34046        2.04375
C         -1.64317        4.61851        2.68166
C         -2.99528        4.52835        2.24730
C         -3.56418        3.59323        1.38160
C         -4.94706        3.81751        1.22792
C         -5.37059        4.90241        1.96308
S         -4.18398        5.64158        2.86145
C         -6.75128        5.08958        1.74059
C         -7.19986        4.11773        0.87378
C         -6.08059        3.25483        0.49591
C         -6.08616        2.20068       -0.34291
C         -4.90711        1.44878       -0.60802
N         -3.94537        0.83610       -0.81925
C         -7.26392        1.79099       -1.02110
N         -8.22568        1.46292       -1.58620
C         -8.58022        4.24848        0.61382
C         -9.11895        5.34897        1.28430
S         -7.90942        6.17142        2.23128
C        -10.48156        5.85449        1.29052
N        -10.71526        7.18299        1.46633
N        -12.02997        7.75722        1.47918
C        -13.16442        7.02475        1.32337
C        -12.97003        5.64428        1.13414
C        -11.63060        5.06045        1.11483
N        -11.76189        3.73810        0.92300
O        -13.11563        3.49501        0.81179
N        -13.85451        4.65328        0.93868
C        -14.46234        7.67440        1.34203
C        -15.70280        7.18280        1.75671
C        -16.72423        8.12945        1.53577
C        -16.22934        9.27925        0.96284
S        -14.58860        9.29944        0.73127
C        -17.30428       10.13393        0.65233
C        -18.47704        9.52871        1.03969
C        -18.17791        8.23636        1.65390
C        -19.04460        7.35499        2.18701
C        -18.60603        6.13467        2.77454
N        -18.23944        5.14538        3.26332
C        -20.44529        7.60327        2.19274
N        -21.58280        7.83346        2.16794
C        -19.60031       10.29441        0.67729
C        -19.22596       11.40143       -0.08615
S        -17.49183       11.58816       -0.12392
C        -20.02060       12.34979       -0.78259
C        -21.15171       12.06780       -1.44504
C        -21.94927       10.85916       -1.72260
C        -21.51799        9.60992       -2.03320
C        -22.40267        8.51942       -2.28258
N        -23.10697        7.61576       -2.46267
C        -20.14632        9.26461       -2.21112
N        -19.05434        8.90765       -2.37559
C        -23.35653       11.32944       -1.91315
C        -23.34085       12.71821       -2.07203
C        -21.99109       13.24985       -1.83451
O        -21.66266       14.41673       -1.88700
C        -24.46119       13.47638       -2.39107
C        -25.68165       12.79019       -2.58201
C        -25.71507       11.40516       -2.37453
C        -24.56945       10.65988       -2.00655
S        -27.29436       10.76596       -2.64448
C        -27.91912       12.29138       -3.06983
C        -26.97053       13.28234       -2.97751
H         -0.28700        6.99545       -1.78524
H          3.53209        5.50795        1.10329
H          4.34818        7.17619       -3.92097
H          1.74073        7.43266       -3.76107
H         -1.40206        3.99517        3.53487
H         -2.98061        2.81820        0.90080
H         -9.17164        3.60844       -0.03082
H        -15.83463        6.18461        2.15812
H        -20.63491       10.03346        0.85606
H        -19.68863       13.38875       -0.72474
H        -24.38844       14.55363       -2.51241
H        -24.67898        9.59509       -1.84045
H        -28.95544       12.39039       -3.36198
H        -27.18228       14.32108       -3.20039
