101

C        -16.50078       -7.97088        3.51961
C        -16.92985       -9.00350        4.28203
C        -16.16037      -10.18771        4.48296
N        -15.53428      -11.15132        4.64189
C        -18.22473       -9.01967        4.87111
N        -19.28030       -9.02809        5.35327
C        -15.22935       -7.93246        2.74194
C        -15.37339       -7.00038        1.71222
C        -14.39674       -6.73576        0.76413
C        -13.19918       -7.47774        0.84521
C        -13.02186       -8.37338        1.90803
C        -14.01942       -8.59984        2.88605
S        -11.47038       -9.12752        1.83784
C        -11.07187       -8.34181        0.38103
C        -12.06923       -7.49214       -0.03193
C        -16.67995       -6.33581        1.79682
O        -17.17073       -5.63339        0.93764
C        -17.26604       -6.77221        3.11325
C        -18.15624       -6.03616        3.80349
C        -18.66560       -4.72484        3.41956
C        -17.92952       -3.61446        3.23487
C        -18.43763       -2.33737        2.78792
C        -17.47242       -1.47213        2.43190
C        -16.12967       -2.02303        2.54561
S        -16.19693       -3.53102        3.45424
C        -14.99058       -1.53015        2.01965
C        -14.82423       -0.27157        1.31742
C        -13.57931       -0.05832        0.86310
C        -12.65788       -1.13357        1.15573
S        -13.45136       -2.40354        2.05296
C        -11.36053       -1.14791        0.80694
C        -10.41982       -2.21983        1.17631
C         -9.74501       -2.24729        2.40236
C         -8.95773       -3.38142        2.81121
N         -8.45204       -3.37133        4.05878
C         -8.55073       -2.26319        4.83527
C         -9.23932       -1.16299        4.40450
N         -9.86217       -1.15853        3.20028
C         -9.33898        0.03831        5.17632
N         -9.39718        1.00269        5.82044
C         -7.85754       -2.31259        6.08846
N         -7.29889       -2.32220        7.10643
C         -8.69336       -4.48956        1.95994
C         -9.30294       -4.43853        0.66717
C        -10.19907       -3.29268        0.27808
N        -10.71847       -3.42773       -0.95438
S        -10.04844       -4.78721       -1.61324
N         -9.17655       -5.34459       -0.32131
C         -7.93645       -5.73548        2.28450
C         -6.87523       -5.97570        3.07575
C         -6.30564       -7.29338        3.28888
C         -5.26185       -7.31304        4.13469
C         -4.88881       -5.99987        4.62257
S         -5.97073       -4.79128        3.95836
C         -3.79651       -5.66011        5.32977
C         -2.69705       -6.52436        5.71296
C         -1.53454       -5.85558        5.81193
C         -1.68213       -4.44298        5.51519
S         -3.35154       -3.98173        5.65935
C         -0.70928       -3.66286        5.02582
C         -0.83336       -2.32747        4.47025
C         -1.59676       -1.89509        3.45111
C         -2.61576       -2.50015        2.57453
C         -2.59875       -3.74289        2.03752
C         -3.61033       -4.23433        1.16584
N         -4.42963       -4.65925        0.45861
C         -1.49903       -4.64293        2.20857
N         -0.60721       -5.37356        2.28916
C         -3.51905       -1.37899        2.14791
C         -2.85830       -0.17709        2.42139
C         -1.63300       -0.41825        3.19652
O         -0.84455        0.42660        3.56773
C         -3.32302        1.07588        2.04091
C         -4.56371        1.13863        1.37205
C         -5.28596       -0.04928        1.18010
C         -4.78076       -1.32447        1.56178
S         -6.81350        0.27785        0.43719
C         -6.46425        1.93914        0.26185
C         -5.25045        2.26983        0.81487
H        -14.56137       -5.99375       -0.01245
H        -13.81240       -9.28796        3.69749
H        -10.12609       -8.53537       -0.10652
H        -12.01183       -6.90748       -0.93922
H        -18.52124       -6.35682        4.77588
H        -19.74398       -4.68169        3.27912
H        -19.49593       -2.12869        2.70845
H        -17.67932       -0.48839        2.03539
H        -15.62329        0.44745        1.20118
H        -13.27455        0.84091        0.34499
H        -10.92006       -0.31642        0.26550
H         -8.32793       -6.60401        1.75117
H         -6.69402       -8.17798        2.80140
H         -4.72523       -8.21474        4.39601
H         -2.78526       -7.59697        5.81101
H         -0.57570       -6.32438        5.98411
H          0.30231       -4.06488        4.97109
H         -0.18941       -1.60259        4.97634
H         -2.74310        1.97065        2.25080
H         -5.38435       -2.20744        1.38147
H         -7.16462        2.60254       -0.22914
H         -4.85683        3.28052        0.81458
