117

C         -2.84010       -1.30606       -2.66697
C         -2.47800       -1.55442       -3.94849
C         -1.90097       -2.78693       -4.36838
N         -1.42747       -3.78763       -4.71458
C         -2.70894       -0.62003       -4.99992
N         -2.89355        0.13877       -5.85795
C         -2.78070       -2.27243       -1.52492
C         -3.59998       -1.79114       -0.50090
C         -3.76211       -2.42046        0.72783
C         -3.04591       -3.61655        0.95312
C         -2.22466       -4.11187       -0.07134
C         -2.07341       -3.45139       -1.31779
S         -1.45421       -5.58342        0.40763
C         -2.17736       -5.54158        1.93172
C         -2.99085       -4.45643        2.11810
Br        -1.89067       -6.85249        3.23871
C         -4.20407       -0.50451       -0.87433
O         -5.07676        0.06051       -0.25117
C         -3.52934       -0.09958       -2.15395
C         -3.45261        1.17605       -2.56964
C         -4.05919        2.33093       -1.89262
C         -5.34249        2.77561       -2.25197
C         -5.85927        3.89614       -1.61134
C         -5.11840        4.54895       -0.60370
C         -3.85451        4.11374       -0.24190
C         -3.32063        3.00516       -0.89891
C         -5.85123        5.70265       -0.14504
C         -7.02749        5.85361       -0.90419
C         -7.18774        4.63899       -1.83512
C         -7.39399        5.07587       -3.30930
C         -6.26491        5.90709       -3.91700
C         -8.40375        3.78358       -1.36920
C         -8.32536        3.22293        0.05422
C         -7.84628        6.97352       -0.75050
C         -7.50312        7.93905        0.21150
C         -6.37034        7.70244        1.02725
C         -5.53886        6.59827        0.85078
C         -8.29626        9.19076        0.31611
C         -8.00246       10.16802        1.19229
C         -8.59092       11.50847        1.38174
C         -7.79267       12.56132        1.89230
C         -8.32139       13.87172        2.14491
N         -7.51041       14.85185        2.60712
C         -6.19891       14.56663        2.83056
C         -5.68711       13.31554        2.60217
N         -6.47956       12.31375        2.13888
C         -4.30839       12.97476        2.82927
N         -3.20035       12.71495        3.02471
C         -5.40270       15.65093        3.31465
N         -4.73959       16.51738        3.71016
C         -9.67625       14.17854        1.92313
C        -10.51526       13.15823        1.39936
C         -9.96136       11.78351        1.12606
N        -10.89912       10.93706        0.66703
S        -12.31742       11.78271        0.55957
N        -11.82093       13.26580        1.09986
C        -10.24953       15.50616        2.18469
C        -10.83187       15.89815        3.33778
C        -11.02692       15.00503        4.53385
C        -11.29704       17.32465        3.51103
N        -12.68198       17.40436        3.10263
C        -13.59284       18.34045        3.51652
C        -14.85594       18.45905        3.08958
C        -15.80340       19.41564        3.60420
C        -17.13434       19.18575        3.63173
C        -17.80985       20.37279        4.16457
C        -16.73761       21.34682        4.42417
C        -15.57229       20.77043        4.08375
C        -16.82745       22.64719        4.97074
N        -16.88908       23.71344        5.42548
C        -19.14206       20.50659        4.33925
C        -19.81897       21.73150        4.75801
C        -21.15148       21.52501        4.74577
C        -21.38109       20.12871        4.40275
C        -20.21159       19.51911        4.14137
C        -20.10543       18.15352        3.79281
N        -20.02736       17.03161        3.50339
C        -22.14000       22.51473        5.09564
C        -22.00957       23.82512        4.84785
H         -4.39993       -1.98527        1.49259
H         -1.39815       -3.87761       -2.05064
H         -3.53072       -4.25669        3.03611
H         -2.85087        1.47314       -3.42401
H         -5.91185        2.26474       -3.02115
H         -3.27719        4.63539        0.51402
H         -2.31788        2.67758       -0.63480
H         -8.32026        5.66039       -3.39077
H         -7.53813        4.18992       -3.94115
H         -6.07427        6.81918       -3.34407
H         -6.53404        6.20913       -4.93477
H         -5.33407        5.33616       -3.98008
H         -8.54545        2.93587       -2.05213
H         -9.31706        4.38996       -1.43808
H         -7.59998        2.40564        0.11722
H         -9.29944        2.82133        0.35261
H         -8.05261        3.98404        0.79074
H         -8.72134        7.09804       -1.38201
H         -6.07947        8.38655        1.81634
H         -4.66659        6.46804        1.48071
H         -9.10052        9.30805       -0.40653
H         -7.16937       10.02164        1.87161
H        -10.14465       16.21229        1.36258
H        -11.43450       14.02971        4.25068
H        -11.73325       15.44452        5.24736
H        -10.07692       14.85945        5.05782
H        -10.68760       18.00612        2.90495
H        -11.17595       17.64032        4.55410
H        -13.01885       16.67726        2.47621
H        -13.20618       18.99894        4.29238
H        -15.22481       17.78559        2.31953
H        -17.59442       18.27293        3.29188
H        -14.59378       21.22413        4.14864
H        -19.36032       22.67197        5.01056
H        -22.36199       19.67628        4.36629
H        -23.05188       22.15159        5.56464
H        -21.13305       24.23599        4.35441
H        -22.79171       24.52536        5.12065
