122

C         -0.23751       -1.04102       -4.18756
C          0.74018       -2.00109       -3.94195
C          0.46709       -3.05289       -3.06668
C         -0.78680       -3.08774       -2.46750
N         -1.75760       -2.16933       -2.68828
C         -1.45891       -1.16859       -3.54524
C          1.46739       -4.08441       -2.81611
C          2.36161       -3.99148       -1.81889
C          3.43105       -4.98030       -1.60422
C          3.91538       -5.21024       -0.30660
C          4.96192       -6.11319       -0.13141
C          5.52279       -6.79707       -1.23210
C          5.06692       -6.56338       -2.51539
C          4.03027       -5.64588       -2.69671
C          6.57012       -7.67920       -0.76722
C          6.69591       -7.54636        0.62937
C          5.68753       -6.52272        1.17002
C          4.63862       -7.17071        2.12809
C          5.14484       -7.89429        3.37472
C          6.40431       -5.30512        1.81703
C          7.29400       -4.46752        0.88893
C          7.64788       -8.28050        1.32611
C          8.45141       -9.19151        0.63513
C          8.31916       -9.31972       -0.76223
C          7.38011       -8.55469       -1.47227
C          9.37407      -10.03578        1.40225
C         10.59655       -9.63169        1.79290
C         11.54190      -10.55937        2.42388
C         11.69253      -10.76300        3.82848
N         11.15210      -10.19591        4.99416
C         10.29660       -9.01890        5.01598
C         11.09139       -7.72897        5.14992
C         11.63454      -10.82841        6.15224
C         12.57502      -11.76406        5.70167
C         12.60847      -11.72645        4.27935
C         13.38478      -12.46765        3.36010
C         13.26230      -12.24644        1.99678
C         12.35338      -11.30706        1.54100
C         13.30577      -12.54888        6.62130
C         13.10640      -12.39753        7.98651
C         12.17018      -11.48365        8.44249
C         11.40780      -10.69173        7.55479
C         10.40537       -9.79368        8.14724
C         10.73220       -8.55843        8.55729
C          9.85640       -7.63226        9.26457
C         10.09053       -6.31339        9.39536
C          9.31864       -5.37743       10.18734
C          9.80006       -4.12193       10.17245
C         10.98663       -3.95430        9.35169
S         11.39988       -5.48915        8.59201
C         11.72868       -2.84256        9.17950
C         11.53751       -1.53534        9.77866
C         12.53117       -0.66558        9.52542
C         13.59397       -1.21207        8.70858
S         13.16163       -2.81399        8.15932
C         14.75115       -0.60302        8.39906
C         15.80465       -1.21656        7.60511
C         16.24778       -0.73464        6.42199
C         17.03420       -1.79378        5.81899
C         17.53694       -1.91887        4.57792
C         18.07339       -3.22552        4.23415
C         18.48664       -3.73738        3.05947
C         18.81516       -5.17195        3.22201
C         18.65504       -5.50330        4.52012
C         18.15872       -4.33334        5.20042
C         17.72306       -4.18725        6.45486
C         17.11530       -2.91308        6.76397
C         16.41833       -2.53669        7.84762
C         19.17965       -6.09027        2.16268
C         19.35824       -7.41072        2.29925
H         -0.05148       -0.21498       -4.86460
H          1.70578       -1.92786       -4.43593
H         -1.05783       -3.88133       -1.77652
H         -2.25393       -0.44663       -3.70848
H          1.45310       -4.91973       -3.51054
H          2.33751       -3.15151       -1.12794
H          3.48598       -4.69599        0.54835
H          5.50452       -7.06475       -3.37188
H          3.70065       -5.44445       -3.71315
H          4.02743       -7.89228        1.56871
H          3.94226       -6.39251        2.46893
H          5.74109       -8.77576        3.12675
H          4.29164       -8.26806        3.95317
H          5.72668       -7.23805        4.02724
H          7.02667       -5.64599        2.65334
H          5.65505       -4.62598        2.24303
H          8.05854       -5.06843        0.38759
H          7.81162       -3.69626        1.47028
H          6.70662       -3.94786        0.12464
H          7.75397       -8.17573        2.40023
H          8.93887      -10.02586       -1.31185
H          7.28522       -8.66151       -2.54776
H          8.99653      -11.02244        1.65768
H         10.99291       -8.66298        1.49980
H          9.57941       -9.12678        5.83213
H          9.69182       -9.00327        4.10932
H         11.68574       -7.71525        6.06707
H         10.41801       -6.86670        5.17167
H         11.79118       -7.60048        4.31842
H         14.09131      -13.20862        3.72377
H         13.87411      -12.81021        1.29892
H         12.27152      -11.14963        0.46639
H         14.03459      -13.26922        6.25925
H         13.68202      -12.99963        8.68517
H         12.02762      -11.38607        9.51781
H          9.42136      -10.21846        8.31448
H         11.74964       -8.21619        8.37030
H          8.98813       -8.06922        9.75403
H          8.45288       -5.67892       10.76283
H          9.35639       -3.30915       10.73079
H         10.67791       -1.29004       10.38485
H         12.55850        0.34743        9.90240
H         14.94853        0.40896        8.74042
H         15.94140        0.17150        5.92387
H         17.45751       -1.14402        3.82527
H         18.51812       -3.22115        2.11296
H         18.77523       -6.46699        4.98633
H         17.71906       -4.99379        7.17971
H         16.21177       -3.14947        8.70860
H         19.27381       -5.65603        1.16977
H         19.25620       -7.92028        3.25210
H         19.59778       -8.03010        1.44105
