95

C          4.48043        1.37261       -5.86868
C          3.31326        1.17905       -6.59878
F          3.10312        1.90397       -7.70508
C          2.34967        0.26931       -6.18564
C          2.56001       -0.48109       -5.02833
C          3.71891       -0.29383       -4.25953
C          4.68834        0.66579       -4.67719
C          5.79943        0.95497       -3.86299
C          5.89377        0.36313       -2.61157
C          4.98453       -0.65006       -2.26869
C          3.90970       -1.00191       -3.06713
C          5.28109       -1.18609       -0.92721
O          4.70704       -2.09968       -0.37288
C          6.44274       -0.38829       -0.41670
C          6.65152        0.71101       -1.37583
C          7.02133        1.98332       -1.08228
C          7.00995        2.45516        0.26379
N          6.91398        2.85493        1.34834
C          7.32862        2.95479       -2.07489
N          7.62396        3.72255       -2.89387
C          7.13121       -0.86160        0.63908
C          8.37433       -0.35102        1.13631
S          9.60706        0.17976        0.05151
C         10.66056        0.75555        1.29027
C         10.14311        0.40749        2.52218
C          8.86980       -0.28767        2.42884
C          8.19401       -0.80918        3.54096
C          8.89637       -0.59264        4.74256
F          8.36569       -1.09130        5.87101
C         10.13179        0.10938        4.83350
F         10.69429        0.25540        6.04440
C         10.81383        0.65043        3.72921
C         11.86649        1.44276        0.95191
C         12.58545        1.10214       -0.12706
C         13.83841        1.71705       -0.46819
C         14.95280        1.02302       -0.76696
C         15.07274       -0.48036       -0.72955
C         16.20825        1.74604       -1.16067
N         16.98892        1.95775        0.03839
C         18.34338        2.16071        0.02011
C         19.12114        2.58492        1.02115
N         20.49248        2.70192        0.95538
C         21.30154        2.48437       -0.12298
O         21.03651        2.24217       -1.28836
C         22.68800        2.61622        0.33262
C         22.67984        2.88225        1.63875
C         21.25781        3.04744        2.02697
O         20.88518        3.41032        3.13728
C         23.83786        3.04619        2.47863
C         23.94641        2.85336        3.80157
C         25.14150        3.42874        4.50491
O         26.21167        3.73376        4.02280
C         24.70856        3.62812        5.90084
C         25.41628        4.27154        6.90082
C         24.78461        4.45495        8.13758
C         23.43294        4.03106        8.31454
C         22.79964        4.25611        9.54253
C         23.49667        4.85437       10.58524
C         24.81930        5.24784       10.43327
C         25.46102        5.05794        9.20876
F         22.88286        5.04580       11.75983
C         22.74887        3.38050        7.27231
C         23.40800        3.13236        6.07950
C         23.02391        2.39819        4.84761
C         22.19568        1.32695        4.80332
C         22.12957        0.47425        3.65893
N         22.09502       -0.19311        2.71318
C         21.39469        0.92306        5.90747
N         20.73571        0.59726        6.80608
H          5.19435        2.11255       -6.22136
H          1.43568        0.15788       -6.76060
H          1.79201       -1.18408       -4.71115
H          6.51533        1.69820       -4.20081
H          3.20240       -1.75265       -2.72491
H          6.73218       -1.73093        1.16222
H          7.25563       -1.34536        3.52618
H         11.75917        1.16266        3.84501
H         12.23475        2.20642        1.63290
H         12.27042        0.29853       -0.78893
H         13.85782        2.80612       -0.47154
H         14.12041       -0.98974       -0.55678
H         15.75235       -0.78284        0.07409
H         15.46776       -0.85703       -1.67849
H         15.98400        2.71174       -1.62743
H         16.76349        1.15594       -1.90028
H         16.48325        2.31001        0.84605
H         18.77268        1.89515       -0.94167
H         18.67884        2.82067        1.98668
H         23.52640        2.44900       -0.32068
H         24.71484        3.42717        1.94960
H         26.42653        4.62383        6.71225
H         21.76760        3.95952        9.71007
H         25.34271        5.70068       11.26939
H         26.49618        5.37607        9.10240
H         21.71361        3.08427        7.42016
