106

C          2.16740       -1.74897       -5.63185
C          0.85388       -1.80589       -6.07973
F          0.30699       -2.99495       -6.36297
C          0.10732       -0.64958       -6.26398
C          0.66954        0.59349       -5.96869
C          1.99612        0.68697       -5.52568
C          2.76530       -0.50788       -5.38131
C          4.12888       -0.43513       -5.06483
C          4.72170        0.81373       -4.98342
C          3.93098        1.97162       -4.98303
C          2.57869        1.93573       -5.25780
C          4.76235        3.16228       -4.68066
O          4.37641        4.30427       -4.55138
C          6.15286        2.62782       -4.48496
C          6.12865        1.26420       -5.02241
C          7.07360        0.67163       -5.79110
C          8.13877        1.43905       -6.32656
N          8.93588        2.10301       -6.85833
C          6.94086       -0.65431       -6.29032
N          6.81217       -1.74437       -6.67247
C          7.00936        3.28241       -3.67912
C          8.17416        2.70769       -3.06099
S          9.56677        3.71293       -2.81885
C         10.52704        2.46662       -2.07691
C          9.74752        1.33393       -1.91335
C          8.41842        1.46986       -2.48712
C          7.46070        0.44828       -2.41647
C          7.93086       -0.73340       -1.83669
F          7.09541       -1.78344       -1.82478
C          9.21249       -0.86207       -1.26052
F          9.52636       -2.02674       -0.67502
C         10.16840        0.17015       -1.24091
C         11.88297        2.79006       -1.73720
C         12.87025        1.87919       -1.76147
C         14.24037        2.16181       -1.36543
C         15.26186        1.28784       -1.36349
C         16.57800        1.58190       -0.84420
C         17.38509        0.51210       -0.77739
C         16.78611       -0.71212       -1.27929
S         15.18126       -0.36286       -1.92989
C         17.29950       -1.95513       -1.19989
C         18.49384       -2.37527       -0.49007
C         18.49711       -3.69026       -0.20591
C         17.30053       -4.37547       -0.67218
S         16.52874       -3.38372       -1.87664
C         16.88094       -5.55766       -0.18985
C         15.65621       -6.25876       -0.47749
S         15.75549       -7.99568       -0.44983
C         14.08002       -8.26075       -0.77755
C         13.46643       -7.04027       -0.99381
C         14.33558       -5.90076       -0.72385
C         13.84547       -4.58304       -0.72057
C         12.50368       -4.46986       -1.11647
F         11.98498       -3.23403       -1.20119
C         11.68113       -5.57781       -1.42633
F         10.41304       -5.34539       -1.80199
C         12.11078       -6.91501       -1.34948
C         13.52878       -9.58440       -0.82154
C         13.97965      -10.59432       -0.05839
C         13.39124      -11.91507       -0.08693
C         13.35086      -12.80338        0.91643
C         13.01465      -14.22086        0.56430
O         12.52924      -14.64205       -0.46488
C         13.44951      -15.02968        1.71153
C         13.35365      -16.41034        1.80468
C         13.76086      -17.02038        2.99486
C         14.30650      -16.22266        4.04167
C         14.68327      -16.84131        5.24124
C         14.50874      -18.21084        5.40725
C         13.98165      -18.99632        4.39170
C         13.61610      -18.40450        3.18247
F         14.84357      -18.77863        6.57304
C         14.42987      -14.82557        3.88581
C         13.96303      -14.21191        2.73062
C         13.76418      -12.78292        2.32943
C         13.70390      -11.73366        3.18829
C         13.06298      -10.50566        2.86318
N         12.50140       -9.50418        2.65685
C         14.19115      -11.79874        4.52839
N         14.62031      -11.84308        5.60191
H          2.72129       -2.67867       -5.52658
H         -0.90656       -0.72231       -6.64326
H          0.07316        1.49071       -6.12170
H          4.70751       -1.35047       -4.96297
H          2.01365        2.86151       -5.31602
H          6.75864        4.30127       -3.37386
H          6.43713        0.49224       -2.74249
H         11.11279        0.02294       -0.73613
H         12.11302        3.82302       -1.48375
H         12.66220        0.85763       -2.06793
H         14.42153        3.16851       -0.99223
H         16.86173        2.57077       -0.51047
H         18.39354        0.55527       -0.39228
H         19.27166       -1.69348       -0.17872
H         19.27966       -4.18776        0.35079
H         17.54594       -6.06103        0.51336
H         14.38903       -3.68967       -0.46095
H         11.42852       -7.72646       -1.55998
H         12.64987       -9.74219       -1.44223
H         14.82133      -10.45285        0.61469
H         13.02381      -12.22461       -1.06893
H         12.93797      -16.98274        0.97925
H         15.09098      -16.26801        6.06978
H         13.85023      -20.06206        4.55066
H         13.19773      -19.03039        2.39631
H         14.86253      -14.25995        4.70398
