105

C        -13.54152      -13.33216       -7.71341
C        -12.33350      -13.31056       -7.09142
C        -11.58495      -14.48806       -6.79577
N        -10.97880      -15.44883       -6.56114
C        -11.71850      -12.11498       -6.61259
N        -11.22050      -11.15890       -6.18503
C        -14.32883      -14.56606       -8.06603
C        -15.60600      -14.17411       -8.46576
C        -16.63470      -15.04037       -8.82038
C        -16.37665      -16.42058       -8.75486
C        -15.09644      -16.84372       -8.36904
C        -14.05517      -15.93171       -8.03418
S        -15.00411      -18.57134       -8.35677
C        -16.62179      -18.72876       -8.81627
C        -17.24818      -17.52962       -9.01795
Br       -17.47910      -20.38070       -9.02660
C        -15.74656      -12.72341       -8.46439
O        -16.77114      -12.15528       -8.78259
C        -14.41754      -12.16563       -8.04103
C        -14.17990      -10.84236       -8.01407
C        -15.16059       -9.78282       -8.22337
C        -15.10205       -8.55192       -7.69172
C        -16.18548       -7.59611       -7.73935
C        -16.03268       -6.57431       -6.88291
C        -14.80792       -6.64862       -6.10512
S        -13.79179       -7.95120       -6.71833
C        -14.50057       -5.93482       -5.00664
C        -15.33485       -4.95180       -4.34185
C        -14.89947       -4.61603       -3.11713
C        -13.68067       -5.29384       -2.73410
S        -13.02871       -6.19124       -4.07931
C        -13.11297       -5.24013       -1.51926
C        -11.91846       -5.96789       -1.13507
C        -11.11266       -5.60436       -0.12810
C         -9.94086       -6.35817        0.16157
O         -9.55562       -7.48635       -0.53722
C         -8.38556       -8.00084       -0.01796
C         -8.01380       -7.16314        1.02238
C         -8.97816       -6.14969        1.13039
O         -8.97816       -5.13470        2.01349
O         -6.91165       -7.27139        1.78951
C         -7.76277       -9.17654       -0.52209
C         -7.87601       -9.50423       -1.81819
C         -7.22888      -10.66491       -2.38819
C         -6.95833      -10.77060       -3.69867
C         -6.28168      -11.91893       -4.26324
C         -6.36496      -12.36606       -5.52688
C         -5.66191      -13.54000       -5.98054
C         -6.06233      -13.96689       -7.18471
C         -7.14672      -13.18095       -7.77327
S         -7.39369      -11.72887       -6.80080
C         -7.91136      -13.57192       -8.81946
C         -7.78412      -14.86437       -9.46660
C         -8.79459      -15.17377      -10.28639
C         -9.77369      -14.12053      -10.46169
S         -9.30164      -12.70837       -9.52578
C        -10.81731      -14.27329      -11.30397
C        -11.80522      -13.30585      -11.75883
C        -12.54283      -13.31285      -12.89095
C        -12.68909      -14.17712      -14.09498
C        -11.71772      -14.84785      -14.75948
C        -11.92626      -15.52467      -16.01572
N        -12.08242      -16.07014      -17.02134
C        -10.35287      -14.81700      -14.35207
N         -9.23020      -14.79234      -14.06988
C        -13.99211      -13.80895      -14.74474
C        -14.40686      -12.58820      -14.21416
C        -13.55752      -12.21090      -13.06827
O        -13.67960      -11.20384      -12.40218
C        -15.45441      -11.83578      -14.73946
C        -16.12892      -12.33608      -15.87972
C        -15.77609      -13.60535      -16.36224
C        -14.73500      -14.37714      -15.78200
S        -16.73498      -14.03823      -17.73569
C        -17.52394      -12.54599      -17.73612
C        -17.15282      -11.73676      -16.69500
Br       -18.77730      -12.04726      -19.03755
H        -17.60675      -14.65357       -9.11571
H        -13.09441      -16.34112       -7.74704
H        -18.28409      -17.42776       -9.32044
H        -13.19343      -10.46862       -7.76275
H        -16.05885      -10.03550       -8.77910
H        -17.06189       -7.73968       -8.35653
H        -16.77075       -5.79695       -6.74979
H        -16.24602       -4.56264       -4.77220
H        -15.41371       -3.92952       -2.45937
H        -13.57473       -4.63518       -0.74266
H        -11.67345       -6.85666       -1.71719
H        -11.30796       -4.71518        0.46210
H         -8.18435       -5.22538        2.57299
H         -6.34576       -7.99314        1.46551
H         -7.16208       -9.77708        0.15246
H         -8.45139       -8.87517       -2.49810
H         -6.98432      -11.47870       -1.70812
H         -7.21021       -9.95906       -4.37883
H         -5.65903      -12.47235       -3.55920
H         -4.90903      -14.03860       -5.38320
H         -5.63907      -14.84696       -7.64634
H         -6.96834      -15.54619       -9.27541
H         -8.84861      -16.11432      -10.81632
H        -10.93622      -15.26568      -11.73650
H        -11.95199      -12.47098      -11.07007
H        -15.70367      -10.86643      -14.31785
H        -14.51843      -15.35202      -16.20732
H        -17.56080      -10.74666      -16.52909
