115

C        -11.03649       -1.29107       -4.46486
C        -11.23988       -2.62676       -4.37661
C        -12.50142       -3.23602       -4.64847
N        -13.52153       -3.72765       -4.86530
C        -10.18728       -3.54025       -4.08024
N         -9.32608       -4.27821       -3.83746
C        -12.03441       -0.27590       -4.92888
C        -11.33741        0.85935       -5.34239
C        -11.93481        2.01741       -5.82693
C        -13.34404        2.05599       -5.86960
C        -14.06079        0.92375       -5.45118
C        -13.42418       -0.25662       -4.98099
S        -15.76462        1.19185       -5.57907
C        -15.54161        2.77045       -6.13402
C        -14.22491        3.11953       -6.26571
Br       -16.95792        3.93352       -6.52151
C         -9.89560        0.67656       -5.15518
O         -9.05792        1.36057       -5.70427
C         -9.74504       -0.56811       -4.31217
C         -8.73337       -0.83684       -3.46067
C         -7.65049        0.04957       -3.19824
O         -7.61187        1.35553       -3.63655
C         -6.50428       -0.09387       -2.46036
C         -5.80496       -1.03721       -1.64448
O         -6.17749       -2.14304       -1.30037
N         -4.64044       -0.38560       -1.29477
C         -4.54557        0.90482       -1.77874
O         -3.64059        1.69628       -1.58659
C         -5.75512        1.09205       -2.52458
C         -6.44750        2.00473       -3.27676
C         -6.22494        3.32209       -3.74376
C         -5.16056        4.05569       -3.41296
C         -4.83453        5.35268       -3.92261
C         -4.67630        6.34000       -2.97090
S         -4.12096        7.78298       -3.63187
C         -4.02939        7.10114       -5.19955
C         -4.52414        5.80411       -5.29161
C         -4.58998        5.24317       -6.63413
C         -5.33389        3.92255       -6.86873
C         -4.63667        2.63585       -6.44216
C         -4.04188        6.00689       -7.79557
C         -4.16660        5.44221       -9.21820
C         -4.69395        6.37861      -10.30714
C         -3.36127        7.26354       -7.56612
C         -2.52183        8.17287       -8.36191
C         -2.22413        9.34281       -7.68575
S         -2.84936        9.37856       -6.12749
C         -3.47315        7.79530       -6.28425
C         -1.86054        7.96315       -9.63267
C         -1.64925        8.96318      -10.51950
C         -0.66231        9.14701      -11.64624
C         -0.64695       10.44999      -12.28783
O         -1.92196       10.99481      -12.27880
C         -2.10440       12.38298      -12.08885
C         -3.16495       12.75933      -11.08267
C          0.54751       10.95172      -12.89569
O          0.77140       12.09018      -13.66186
C         -0.33184       12.78404      -14.21999
C         -0.07033       13.75979      -15.35511
C          1.72409       10.17263      -12.73143
O          2.94842       10.69748      -13.13229
C          4.06158        9.78565      -13.09422
C          5.34631       10.42349      -13.58537
C          1.62709        8.86319      -12.23310
C          0.42433        8.27879      -11.82798
C          0.34177        6.80578      -11.79254
S         -1.10485        5.94027      -12.26943
C         -0.37907        4.37779      -12.08487
C          0.92970        4.56062      -11.83399
C          1.32571        5.88509      -11.68708
O          2.66395        6.08916      -11.52481
C          3.11760        4.78861      -11.61207
N          4.53029        4.63931      -11.62611
O          4.98842        3.69694      -10.96846
O          5.17675        5.42958      -12.32600
C          2.11092        3.81844      -11.74747
H        -11.33140        2.87088       -6.12552
H        -14.04181       -1.08552       -4.65463
H        -13.88722        4.09037       -6.60919
H         -8.73933       -1.73422       -2.84974
H         -3.94488       -0.79130       -0.69154
H         -6.95220        3.70050       -4.45406
H         -4.48457        3.69209       -2.64159
H         -4.84202        6.27183       -1.90343
H         -5.62839        3.76516       -7.90226
H         -6.31077        4.01685       -6.38747
H         -5.34798        1.80207       -6.51470
H         -4.25780        2.65739       -5.42100
H         -3.78786        2.40492       -7.09006
H         -4.87428        4.62027       -9.27132
H         -3.20269        5.01035       -9.50444
H         -4.64795        5.86659      -11.27618
H         -4.13734        7.30516      -10.41289
H         -5.73889        6.64976      -10.12597
H         -1.61463       10.17182       -8.01915
H         -1.40415        6.98949       -9.74032
H         -2.15469        9.90075      -10.28547
H         -2.48306       12.76862      -13.04148
H         -1.18237       12.86096      -11.75432
H         -4.07104       12.16029      -11.18737
H         -3.41464       13.81816      -11.22796
H         -2.77526       12.64258      -10.06953
H         -0.66891       13.47451      -13.45552
H         -1.09382       12.07398      -14.55207
H          0.77504       13.49869      -15.98668
H          0.09322       14.76761      -14.94754
H         -0.98521       13.84426      -15.95733
H          3.84858        8.93035      -13.74728
H          4.24091        9.44432      -12.06600
H          5.22807       10.81778      -14.59752
H          6.14906        9.67613      -13.59211
H          5.65071       11.24744      -12.93406
H          2.51361        8.24663      -12.19462
H         -0.94314        3.47286      -12.25803
H          2.26200        2.75237      -11.86040
