107

C         -5.30820       -5.92585       -0.03910
C         -4.54726       -6.94164       -0.49922
C         -4.91416       -8.30833       -0.29712
N         -5.23940       -9.40712       -0.14766
C         -3.41034       -6.70657       -1.33080
N         -2.47901       -6.50753       -1.99136
C         -6.58910       -6.03074        0.72024
C         -7.34406       -4.89311        0.41722
C         -8.53425       -4.55565        1.03467
C         -8.99948       -5.41733        2.04733
C         -8.27359       -6.58640        2.33760
C         -7.05857       -6.92078        1.67837
S         -9.05539       -7.49212        3.58796
C        -10.26726       -6.32992        3.76696
C        -10.13852       -5.27403        2.90779
Br       -11.65064       -6.46293        5.02269
C         -6.61639       -4.03178       -0.51997
O         -7.10021       -3.21145       -1.26718
C         -5.20316       -4.50136       -0.41308
C         -4.15925       -3.65882       -0.33853
C         -4.31693       -2.23529       -0.40369
S         -4.04923       -1.43979       -1.90324
C         -4.32246        0.09905       -1.22602
C         -4.61558        0.05889        0.12260
C         -4.85743        1.28817        0.94392
C         -4.64367       -1.30736        0.58639
C         -4.94546       -1.68749        1.93551
C         -6.19270       -1.91401        2.37346
C         -6.53100       -2.35855        3.69952
C         -6.09213       -3.51195        4.22785
C         -6.55191       -3.97989        5.49496
S         -8.17115       -3.64980        6.01805
C         -7.96741       -4.41255        7.53909
C         -6.71940       -4.99359        7.61357
C         -5.91454       -4.76034        6.44172
C         -4.60821       -5.24571        6.28881
C         -4.15004       -6.00156        7.40106
C         -2.75889       -6.58893        7.30854
C         -4.94893       -6.20172        8.59305
C         -4.40202       -6.99046        9.76029
C         -6.28098       -5.71938        8.72464
C         -9.05432       -4.37645        8.45279
C         -9.17414       -3.35582        9.31478
C        -10.25956       -3.27366       10.26587
C        -11.15720       -2.28189       10.35880
C        -12.21243       -2.25491       11.34138
C        -13.02230       -1.19444       11.23130
C        -12.66552       -0.28472       10.15392
S        -11.24004       -0.89030        9.30642
C        -13.29763        0.86817        9.85892
C        -14.45493        1.40052       10.55728
C        -14.78946        2.64367       10.18915
C        -13.92220        3.19260        9.17435
S        -12.79969        1.98895        8.58859
C        -13.92765        4.48639        8.82077
C        -13.05356        5.09402        7.84508
C        -12.23851        6.14262        8.01958
C        -11.89199        7.02354        9.14623
C        -11.73532        6.70169       10.45524
C        -11.30372        7.63035       11.43515
N        -10.95676        8.39098       12.24707
C        -11.89917        5.38053       10.97588
N        -11.98366        4.35090       11.49760
C        -11.45231        8.31898        8.53514
C        -11.24685        8.11783        7.16730
C        -11.65918        6.76137        6.77940
O        -11.59259        6.29029        5.66348
C        -10.78082        9.09702        6.29560
C        -10.50636       10.37566        6.83114
C        -10.74945       10.59889        8.19491
C        -11.23740        9.58815        9.06062
S        -10.37720       12.22670        8.63796
C         -9.88973       12.60876        7.06900
C        -10.00383       11.56222        6.19321
Br        -9.25948       14.30330        6.57984
H         -9.03865       -3.62522        0.79216
H         -6.51624       -7.81355        1.97465
H        -10.81035       -4.42394        2.88462
H         -3.16067       -4.01712       -0.10670
H         -4.24594        0.97742       -1.85227
H         -4.81971        2.18938        0.31990
H         -4.08958        1.39492        1.71752
H         -5.84091        1.25949        1.42225
H         -4.10473       -1.78935        2.61808
H         -7.04957       -1.76082        1.71956
H         -7.25193       -1.73368        4.22386
H         -5.37884       -4.12721        3.68721
H         -3.98932       -5.07202        5.41783
H         -2.34152       -6.47721        6.30162
H         -2.78296       -7.66139        7.52726
H         -2.08499       -6.08296        8.00655
H         -3.32602       -6.83762        9.88088
H         -4.60543       -8.05556        9.61776
H         -4.86646       -6.66305       10.69702
H         -6.88216       -5.89511        9.60769
H         -9.79453       -5.16883        8.39652
H         -8.45088       -2.54132        9.32620
H        -10.32142       -4.11199       10.95685
H        -12.32804       -3.02100       12.09566
H        -13.85577       -1.02743       11.89786
H        -14.98425        0.86214       11.32947
H        -15.59873        3.20468       10.63439
H        -14.63250        5.16002        9.30423
H        -13.15484        4.66828        6.84306
H        -10.64226        8.87984        5.23966
H        -11.42743        9.84309       10.09675
H         -9.74217       11.62313        5.14360
