98

C         -1.50685        3.56156        3.10432
C         -1.37960        3.81174        4.43331
C         -0.16689        3.60501        5.14261
N          0.82402        3.43710        5.72938
C         -2.43350        4.36058        5.21555
N         -3.28695        4.80294        5.86971
C         -0.41480        3.12505        2.17623
C         -0.83260        3.35708        0.86450
C         -0.07104        3.07336       -0.26358
C          1.20726        2.50980       -0.06457
C          1.63740        2.26430        1.24793
C          0.83478        2.55618        2.38316
S          3.22377        1.57955        1.26424
C          3.32290        1.61038       -0.41999
C          2.19944        2.10791       -1.02285
Br         4.82684        1.02069       -1.36706
C         -2.19635        3.89452        0.83795
O         -2.74941        4.31602       -0.15651
C         -2.69283        3.82929        2.25477
C         -3.99294        3.89875        2.58435
C         -5.09633        4.04984        1.66007
C         -6.28823        4.55224        2.01579
C         -7.35550        4.66117        1.08087
O         -8.29113        5.67681        1.14978
C         -9.22251        5.54773        0.13408
C         -8.88086        4.39785       -0.56451
C         -7.71895        3.86518        0.00872
O         -7.08453        2.74599       -0.38840
O         -9.53268        3.85518       -1.61158
C        -10.29617        6.46192       -0.07959
C        -10.41649        7.59694        0.62853
C        -11.48995        8.54209        0.38771
C        -11.42532        9.84292        0.71714
C        -12.49384       10.77385        0.38858
C        -12.35912       12.07849        0.09902
C        -13.43817       12.92176       -0.36989
C        -13.01493       14.02960       -0.99999
C        -11.56714       14.13007       -1.06475
S        -10.85015       12.94741        0.04300
C        -10.84235       14.85007       -1.94219
C        -11.33473       15.64744       -3.05152
C        -10.41648       15.82800       -4.01797
C         -9.13394       15.21286       -3.71817
S         -9.09374       14.74082       -2.04050
C         -8.17128       14.96393       -4.62595
C         -6.90505       14.23608       -4.45839
C         -6.15190       14.30951       -3.34260
C         -5.02098       13.43724       -3.12091
C         -4.37998       12.83115       -4.13654
C         -4.85206       13.04851       -5.55312
C         -6.40576       13.33231       -5.59614
N         -6.83962       13.81713       -6.92884
C         -5.96159       14.52369       -7.55566
C         -4.59787       14.83509       -7.02415
N         -4.02894       14.15552       -6.09300
F         -3.92663       15.85981       -7.56407
F         -6.28419       14.99175       -8.76777
C         -3.26088       11.92773       -3.91257
C         -2.10782       12.23929       -3.30275
C         -1.11273       11.27759       -2.88710
C         -0.32413       11.74767       -1.90686
C         -0.65662       13.10956       -1.51537
S         -1.67082       13.83657       -2.75355
C         -0.40737       13.69439       -0.32830
C          0.24421       13.06992        0.80787
C          0.07541       13.73993        1.95734
C         -0.68711       14.95237        1.80032
S         -1.02570       15.28505        0.12954
C         -1.12727       15.73302        2.78947
H         -0.46262        3.26766       -1.25907
H          1.22502        2.31468        3.36481
H          2.07616        2.19443       -2.09620
H         -4.31698        3.77970        3.61424
H         -4.93452        3.73060        0.63186
H         -6.46520        4.93460        3.01620
H         -7.55700        2.39128       -1.16422
H        -10.34608        4.35008       -1.80306
H        -11.00375        6.24563       -0.87252
H         -9.68868        7.85068        1.39781
H        -12.36395        8.16438       -0.13975
H        -10.52624       10.24460        1.18114
H        -13.48350       10.32955        0.30012
H        -14.47819       12.64489       -0.26895
H        -13.67846       14.74816       -1.45911
H        -12.35691       15.99015       -3.13098
H        -10.61597       16.33083       -4.95477
H         -8.38661       15.24951       -5.65435
H         -6.40489       14.95083       -2.50428
H         -4.71508       13.29726       -2.08608
H         -4.65056       12.15438       -6.15776
H         -6.90109       12.36056       -5.45259
H         -3.44306       10.89859       -4.21328
H         -1.07442       10.26677       -3.26813
H          0.43242       11.15465       -1.41329
H          0.76104       12.12359        0.74665
H          0.44116       13.40157        2.91597
H         -0.93311       15.49815        3.82908
H         -1.71876       16.62030        2.58231
