88

C          0.99477       -1.45258        1.26885
C         -0.25214       -0.89757        1.43754
C         -0.79254       -0.05591        0.43527
N         -2.01481        0.49529        0.64988
C         -2.66506        0.19806        1.79653
C         -2.11904       -0.62968        2.74532
N         -0.90442       -1.18504        2.57988
C         -0.04507        0.18743       -0.74652
C          1.22830       -0.42604       -0.90318
C          1.74464       -1.23308        0.13749
N          2.96101       -1.80921        0.08029
C          3.68872       -1.59193       -1.03109
C          3.20568       -0.83610       -2.06848
N          1.98437       -0.26339       -2.02070
C         -0.58294        1.09560       -1.81903
C          0.24588        1.97017       -2.54720
C         -0.25109        2.76506       -3.58467
C         -1.61289        2.71314       -3.83776
N         -2.46927        1.91983       -3.15942
C         -1.93320        1.13265       -2.18661
C          0.65973        3.58217       -4.38741
C          0.97929        4.83750       -4.04058
C          1.89496        5.65279       -4.78088
S          2.88242        6.75593       -3.86737
C          3.67497        7.39905       -5.25168
C          3.21480        6.77441       -6.39154
C          2.18394        5.80024       -6.12991
C          1.53490        5.09622       -7.15543
C          1.98953        5.40031       -8.46888
C          1.38442        4.64755       -9.59304
C          0.11501        4.21751       -9.63215
C          3.04515        6.36115       -8.71669
C          3.51093        6.65182      -10.12811
C          3.68663        7.08743       -7.67360
C          4.64743        8.42548       -5.08332
C          4.28158        9.71330       -5.17605
C          5.25662       10.80013       -5.11258
C          5.62888       11.38080       -3.89956
C          6.56076       12.42984       -3.87523
C          7.07985       12.83845       -5.10265
N          6.74781       12.29539       -6.29916
C          5.84513       11.29067       -6.27195
C          6.93026       13.01987       -2.57738
C          7.80541       14.01945       -2.36803
C          8.22835       14.63771       -1.06366
C          7.70697       14.23087        0.18872
C          8.17314       14.87008        1.36010
N          7.73191       14.53923        2.59186
C          6.81480       13.55504        2.67270
C          6.34389       12.91865        1.55487
N          6.77894       13.24867        0.32595
C          9.11822       15.86915        1.26640
C          9.64348       16.27674        0.05905
C          9.20423       15.66508       -1.13658
N          9.73879       16.08019       -2.31851
C         10.67039       17.05738       -2.29129
C         11.08040       17.63346       -1.11421
N         10.57224       17.25365        0.07431
H          1.40178       -2.08391        2.05583
H         -3.64288        0.64793        1.92365
H         -2.63702       -0.87133        3.66589
H          4.67259       -2.04463       -1.05942
H          3.78335       -0.65765       -2.96778
H          1.31052        2.02421       -2.32998
H         -2.06901        3.31422       -4.61936
H         -2.67182        0.49907       -1.70120
H          1.08316        3.07670       -5.24979
H          0.56706        5.25350       -3.12239
H          0.74825        4.37712       -6.98214
H          2.03142        4.42749      -10.43781
H         -0.59564        4.40816       -8.83456
H         -0.25068        3.65553      -10.48572
H          2.67278        6.99101      -10.74497
H          3.96439        5.76001      -10.57200
H          4.26819        7.44373      -10.14674
H          4.46448        7.81594       -7.86882
H          5.68248        8.13317       -4.92767
H          3.24840       10.00887       -5.34340
H          5.18753       11.01345       -2.97468
H          7.80600       13.64237       -5.17930
H          5.59681       10.88029       -7.24692
H          6.41407       12.55639       -1.74469
H          8.29921       14.46092       -3.23018
H          6.46956       13.29386        3.66550
H          5.60896       12.12420        1.60335
H          9.46580       16.34961        2.17860
H         11.07704       17.36005       -3.24932
H         11.83025       18.41558       -1.08911
