90

C         -5.00196       -0.99148       -4.06806
S         -3.56420       -1.35285       -3.23239
C         -4.34503       -2.37107       -2.04666
C         -5.69521       -2.47936       -2.38339
C         -6.05200       -1.69645       -3.55067
C         -7.31916       -1.64742       -4.13442
C         -8.25461       -2.49031       -3.48558
C         -9.57948       -2.54044       -4.03884
N        -10.64499       -2.56543       -4.50195
C         -7.92876       -3.27671       -2.32951
C         -8.91116       -4.15005       -1.74434
N         -9.66936       -4.87904       -1.25527
C         -6.64647       -3.27206       -1.71699
C         -3.52839       -3.02551       -1.00989
S         -3.95886       -4.60491       -0.43780
C         -2.58140       -4.80603        0.56738
C         -1.76578       -3.69673        0.43886
C         -2.33945       -2.64390       -0.39442
C         -1.70640       -1.39494       -0.56412
C         -0.45526       -1.27392        0.09250
C          0.24465       -0.02198       -0.07421
N          0.78292        0.98971       -0.23215
C          0.11320       -2.32613        0.88348
C          1.38174       -2.12724        1.53282
N          2.39870       -1.98594        2.07181
C         -0.52732       -3.57909        1.09050
C         -2.50333       -5.98107        1.36560
N         -1.93923       -7.21174        0.99221
C         -1.29355       -7.52667       -0.26911
C          0.21135       -7.29384       -0.23547
C         -1.99763       -8.14264        2.05224
O         -1.57043       -9.27333        2.16051
C         -2.69848       -7.39541        3.09296
C         -2.97978       -6.07140        2.61456
C         -3.64606       -5.35420        3.72114
O         -4.03261       -4.20356        3.71431
N         -3.64714       -6.31440        4.76792
C         -4.03116       -5.96882        6.12185
C         -5.52411       -6.07844        6.37387
C         -3.09634       -7.52807        4.35452
C         -2.90131       -8.68643        5.18679
C         -3.35858       -9.91649        4.89014
C         -3.13503      -11.00897        5.77982
S         -4.30036      -11.34910        6.98764
C         -3.48873      -12.75000        7.61758
C         -2.27689      -12.88657        6.94302
C         -2.09375      -11.90499        5.88361
C         -0.96756      -11.85185        5.04671
C         -0.00808      -12.86199        5.31666
C          1.16732      -12.89421        4.47959
N          2.09955      -12.91380        3.80085
C         -0.17190      -13.83275        6.35639
C          0.82151      -14.85179        6.57928
N          1.58555      -15.69755        6.78934
C         -1.30863      -13.87337        7.20458
C         -4.09723      -13.53187        8.71077
S         -3.08588      -14.36380        9.86216
C         -4.38176      -15.07134       10.70437
C         -5.57726      -14.64016       10.20318
C         -5.42867      -13.74057        9.07528
C         -6.54880      -13.19135        8.42954
C         -7.79510      -13.60043        8.97391
C         -8.96745      -13.08344        8.31946
N         -9.88097      -12.65204        7.75132
C         -7.91472      -14.49437       10.08970
C         -9.22259      -14.86689       10.57554
N        -10.25988      -15.17373       10.97352
C         -6.79377      -15.05261       10.75324
H         -4.98274       -0.31960       -4.91683
H         -7.56811       -1.05694       -5.01001
H         -6.46786       -3.86344       -0.82937
H         -2.10716       -0.56070       -1.12831
H         -0.07734       -4.36114        1.69284
H         -1.75246       -6.93125       -1.06290
H         -1.47464       -8.58493       -0.50387
H          0.45296       -6.24513       -0.04394
H          0.66570       -7.55699       -1.19623
H          0.68528       -7.89529        0.54758
H         -3.71840       -4.93320        6.29955
H         -3.47668       -6.59159        6.83054
H         -6.08611       -5.42153        5.70279
H         -5.75053       -5.78782        7.40573
H         -5.88262       -7.10092        6.22282
H         -2.29813       -8.52808        6.07808
H         -3.90645      -10.11306        3.97027
H         -0.82611      -11.11769        4.25859
H         -1.37133      -14.63143        7.97163
H         -4.18752      -15.74203       11.53093
H         -6.52751      -12.51724        7.58545
H         -6.88598      -15.73294       11.59367
