97

C          2.87283       -4.34395        4.76162
S          1.34754       -5.00576        4.39201
C          1.49838       -4.68402        2.68425
C          2.69461       -4.02611        2.44513
C          3.47918       -3.84936        3.63974
C          4.72984       -3.24137        3.69193
C          5.16772       -2.80173        2.41724
C          6.45822       -2.16891        2.37197
N          7.50340       -1.66722        2.37406
C          4.39591       -2.96623        1.20866
C          4.91925       -2.49189       -0.04904
N          5.31559       -2.11988       -1.06850
C          3.11712       -3.59065        1.17919
C          0.43891       -5.03234        1.79055
C         -0.39940       -6.05053        2.03857
C         -1.51460       -6.35554        1.21108
S         -1.92759       -8.02483        1.05619
C         -3.24538       -7.71689        0.00543
C         -3.38572       -6.36529       -0.22288
C         -2.41412       -5.58024        0.49962
C         -2.39571       -4.17827        0.47985
C         -3.38079       -3.61078       -0.36554
C         -3.38375       -2.17475       -0.46736
N         -3.34511       -1.01791       -0.52839
C         -4.33210       -4.39656       -1.10196
C         -5.30384       -3.74566       -1.93905
N         -6.09545       -3.24107       -2.61877
C         -4.37902       -5.81690       -1.04598
C         -3.95606       -8.82836       -0.50055
C         -5.00230       -9.33672        0.17307
C         -5.77428      -10.40616       -0.36530
S         -6.03873      -10.47896       -2.07255
C         -7.06256      -11.83807       -1.96955
C         -7.22474      -12.23762       -0.66629
C         -6.46595      -11.43191        0.25582
C         -6.45348      -11.65153        1.63871
C         -7.28121      -12.74204        2.03006
C         -7.32873      -13.03979        3.43469
N         -7.34957      -13.25735        4.57444
C         -8.04968      -13.53106        1.10344
C         -8.87760      -14.60897        1.58081
N         -9.55336      -15.48156        1.93666
C         -8.04860      -13.30648       -0.29532
C         -7.64496      -12.30239       -3.16512
C         -6.96760      -13.11839       -3.98726
C         -7.55453      -13.56210       -5.20737
S         -9.27192      -13.79082       -5.29383
C         -9.25312      -14.19310       -6.95061
C         -7.96210      -14.27813       -7.41019
C         -6.98210      -13.90895       -6.41922
C         -5.60303      -13.88818       -6.67344
C         -5.28158      -14.28662       -8.00105
C         -3.88645      -14.29408       -8.35236
N         -2.75474      -14.28726       -8.60543
C         -6.26984      -14.66872       -8.97631
C         -5.86804      -15.07414      -10.29653
N         -5.57735      -15.40822      -11.36704
C         -7.66049      -14.67378       -8.71479
C        -10.49054      -14.45012       -7.58327
C        -11.20336      -13.44714       -8.11709
C        -12.47245      -13.68224       -8.72305
S        -12.87697      -12.75829      -10.12867
C        -14.39874      -13.53430      -10.35227
C        -14.59572      -14.48210       -9.37009
C        -13.51594      -14.53818       -8.41398
C        -13.52766      -15.38389       -7.29435
C        -14.66639      -16.22218       -7.22700
C        -14.70292      -17.15821       -6.13490
N        -14.67507      -17.90266       -5.24651
C        -15.73072      -16.17301       -8.18998
C        -16.85906      -17.05036       -8.04576
N        -17.77638      -17.75298       -7.94203
C        -15.74124      -15.28559       -9.29759
C        -15.20869      -13.14117      -11.45198
C        -16.12989      -12.18091      -11.30532
H          3.22497       -4.34963        5.78394
H          5.31114       -3.11593        4.59788
H          2.55458       -3.71022        0.25980
H          0.33487       -4.43486        0.89020
H         -0.23715       -6.70942        2.88932
H         -1.71438       -3.55765        1.04920
H         -5.11392       -6.39515       -1.59589
H         -3.61284       -9.23812       -1.44564
H         -5.30025       -8.92671        1.13466
H         -5.88107      -11.07115        2.35190
H         -8.63247      -13.90373       -0.98755
H         -8.64375      -11.93512       -3.38187
H         -5.95276      -13.43000       -3.74907
H         -4.84135      -13.60422       -5.95603
H         -8.40064      -14.96129       -9.45281
H        -10.82051      -15.48232       -7.59267
H        -10.80875      -12.43144       -8.12786
H        -12.75993      -15.42003       -6.53022
H        -16.55932      -15.24726      -10.00973
H        -15.06165      -13.62840      -12.41191
H        -16.28884      -11.66906      -10.36035
H        -16.74372      -11.87295      -12.14618
