86

C          2.00898        3.42892       -0.88906
C          1.48718        2.67930       -1.92577
C          1.30847        1.24200       -1.87368
N          1.00892        0.60774       -3.02418
C          0.88752        1.34711       -4.17122
C          0.94956        2.71834       -4.16034
N          1.23611        3.39723       -3.02769
C          0.78079        3.52613       -5.34119
N          0.64504        4.15595       -6.30086
C          0.84219        0.60744       -5.39304
N          0.84865        0.03324       -6.40686
C          1.53997        0.51538       -0.68393
C          2.24831        1.22767        0.33933
C          2.48990        2.70803        0.21189
N          3.20077        3.24014        1.21514
S          3.60019        1.98478        2.21894
N          2.77714        0.75506        1.48167
C          1.20994       -0.92849       -0.48934
N          1.94837       -1.69602        0.29927
C          1.35184       -2.91450        0.27653
C          0.21940       -2.85392       -0.59699
C         -0.40982       -4.18687       -0.65885
O         -1.28662       -4.59778       -1.37290
C          0.38900       -4.96160        0.27701
C          1.45104       -4.14384        0.79217
N          2.20670       -4.90674        1.63042
C          1.60703       -6.07219        1.59264
C          0.41388       -6.19868        0.74833
C          0.02872       -1.64417       -1.11950
C         -1.08246       -1.29789       -1.98038
C         -1.34740       -2.06234       -3.06146
C         -2.48736       -2.06994       -4.01056
C         -2.53162       -1.06015       -4.98500
F         -1.76762        0.03416       -4.85937
C         -3.34170       -1.15672       -6.11466
C         -4.14293       -2.27227       -6.29147
C         -4.17625       -3.25405       -5.30551
C         -3.38526       -3.17156       -4.13975
C         -3.58393       -4.20257       -3.08365
C         -4.27677       -5.34998       -3.20151
C         -4.41136       -6.35562       -2.11456
N         -3.49301       -6.66289       -1.23156
C         -4.02273       -7.72388       -0.57090
C         -5.33509       -8.02469       -1.08269
C         -5.85605       -9.23117       -0.38426
O         -6.92028       -9.79777       -0.49988
C         -4.72174       -9.60136        0.48923
C         -3.66372       -8.63802        0.32819
N         -2.59331       -9.00262        1.08385
C         -2.99950      -10.10932        1.64572
C         -4.36682      -10.56928        1.32333
C         -5.66650       -7.19083       -2.06509
C         -6.81286       -7.16396       -2.93237
C         -8.02892       -7.57594       -2.54124
C         -9.28640       -7.64382       -3.31077
C        -10.53022       -7.57629       -2.64138
C        -11.77740       -7.78939       -3.32317
N        -12.94535       -7.77170       -2.66077
C        -12.91617       -7.48279       -1.33110
C        -11.73754       -7.20335       -0.68072
N        -10.54394       -7.27415       -1.32293
C        -11.68889       -6.73585        0.67290
N        -11.67357       -6.31668        1.75555
C        -14.18129       -7.48524       -0.66212
N        -15.19315       -7.49578       -0.09402
C        -11.85275       -8.00792       -4.69154
C        -10.64321       -8.02776       -5.41474
C         -9.32015       -7.85529       -4.71859
N         -8.28546       -7.94080       -5.57394
S         -8.91671       -8.17812       -7.08931
N        -10.53670       -8.19874       -6.73950
H          2.15635        4.50169       -0.96903
H          1.94855       -6.96203        2.14712
H         -0.23575       -7.03337        0.54938
H         -1.76692       -0.52057       -1.65340
H         -0.61931       -2.82863       -3.33992
H         -3.31802       -0.37432       -6.86591
H         -4.75611       -2.38343       -7.18163
H         -4.83861       -4.09586       -5.48235
H         -3.16180       -3.95547       -2.11821
H         -4.76066       -5.63136       -4.12419
H         -2.38417      -10.71708        2.32667
H         -4.87662      -11.45687        1.64080
H         -6.66136       -6.79031       -3.93917
H         -8.15523       -7.91424       -1.51217
H        -12.80537       -8.14396       -5.19207
