120

C          7.92081       12.68781        0.33273
C          7.02377       13.61195        1.10085
O          5.92819       14.00223        0.75473
C          7.72631       13.86700        2.38005
C          9.00915       13.27979        2.32851
C          9.24247       12.77295        0.95206
C         10.44238       12.68293        0.32953
C         10.54070       12.45340       -1.07706
N         10.60662       12.25905       -2.21496
C         11.67770       12.88839        1.00337
N         12.68699       13.04767        1.56011
C          9.78395       13.23904        3.47422
C          9.29643       13.84986        4.63535
C          8.04046       14.49560        4.66938
C          7.21601       14.50274        3.52075
C          5.95460       15.13352        3.58812
C          5.52845       15.76141        4.75707
C          6.34659       15.76038        5.88011
C          7.58970       15.12696        5.83885
C          7.31568       11.85446       -0.52715
C          7.80042       10.64235       -1.20280
C          8.74778        9.75941       -0.67413
F          9.31761       10.00153        0.51590
C          9.11312        8.59545       -1.35001
F         10.04834        7.79999       -0.80567
C          8.49677        8.23718       -2.54905
C          7.53600        9.11120       -3.07080
C          7.18972       10.28053       -2.40600
F          6.22140       11.04949       -2.92884
F          6.90038        8.83682       -4.22047
C          8.86881        6.98008       -3.20306
C          8.00231        6.29399       -3.95627
C          8.30399        5.04263       -4.60503
C          8.23566        5.00825       -5.96008
C          8.24075        3.72380       -6.62956
C          8.01492        3.38247       -7.92915
C          7.96298        4.26332       -9.17640
C          8.50354        3.50887      -10.43724
N          8.50596        4.25731      -11.69868
C          6.56852        4.88917       -9.43578
N          6.09679        5.78611       -8.37704
C          7.76440        1.93648       -7.85625
C          7.08813        1.10808       -8.66681
C          6.73249       -0.30709       -8.24042
C          7.39648       -0.77736       -6.95645
C          8.07547        0.05140       -6.15086
C          8.12268        1.43171       -6.53475
C          8.36409        2.51174       -5.79095
C          8.63548        2.60788       -4.38206
C          8.59050        3.82798       -3.82347
C          6.97274       -1.25660       -9.37027
C          8.12186       -1.89983       -9.62072
C          8.24174       -2.87325      -10.70291
C          7.53906       -2.77386      -11.90957
F          6.74828       -1.71988      -12.15885
C          7.63371       -3.76895      -12.87630
F          6.91058       -3.64734      -14.00286
C          8.46333       -4.87764      -12.68306
C          9.17912       -4.95890      -11.48602
C          9.08386       -3.96946      -10.52001
F          9.79203       -4.10235       -9.38636
F          9.95973       -6.01647      -11.22339
C          8.52049       -5.92646      -13.70364
C          9.62368       -6.65978      -13.91039
C          9.68862       -7.70616      -14.88789
C          9.55337       -7.55548      -16.20948
C          9.25280       -8.78852      -16.98997
O          9.48697       -9.92982      -16.65054
C          8.54461       -8.31905      -18.20155
C          8.52989       -6.90581      -18.22211
C          9.34818       -6.39913      -17.08240
C          9.96763       -5.19144      -17.01668
C         10.95581       -4.89144      -16.02772
N         11.78271       -4.61748      -15.24902
C          9.76439       -4.16351      -17.97731
N          9.59012       -3.32256      -18.76214
C          7.81988       -6.25427      -19.21643
C          7.19864       -7.01736      -20.21100
C          7.25394       -8.42809      -20.21546
C          7.92255       -9.11246      -19.17542
C          7.93104      -10.52467      -19.18092
C          7.31603      -11.24181      -20.20491
C          6.68014      -10.56291      -21.23692
C          6.64321       -9.16809      -21.23886
H         10.74695       12.73953        3.51466
H          9.91449       13.82024        5.53262
H          5.29175       15.15545        2.72507
H          4.55893       16.25247        4.78400
H          6.01726       16.25294        6.79124
H          8.20907       15.13538        6.73327
H          6.25829       12.04637       -0.73956
H          9.87699        6.60581       -3.03815
H          6.97755        6.62901       -4.10969
H          8.01640        5.90488       -6.53100
H          8.66434        5.09597       -9.01289
H          7.92144        2.61133      -10.64034
H          9.53106        3.17753      -10.24271
H          7.55726        4.53964      -11.94121
H          8.78616        3.62209      -12.44902
H          5.82657        4.09984       -9.59088
H          6.59426        5.49603      -10.34697
H          6.19470        5.32767       -7.47430
H          5.09888        5.95415       -8.49000
H          6.65962        1.44459       -9.60150
H          5.65176       -0.31298       -8.04507
H          7.28796       -1.82197       -6.67992
H          8.53563       -0.28616       -5.23096
H          8.82866        1.71952       -3.79519
H          8.74345        3.94021       -2.75420
H          6.10025       -1.41047      -10.00082
H          8.99149       -1.76550       -8.97936
H          7.61378       -6.08679      -14.28647
H         10.53175       -6.52356      -13.33028
H          9.78975       -8.70650      -14.45934
H          7.71828       -5.17546      -19.26072
H          6.66284       -6.49402      -21.00249
H          8.42333      -11.08656      -18.39020
H          7.34303      -12.32799      -20.19399
H          6.20878      -11.12091      -22.04180
H          6.13482       -8.66044      -22.05573
