112

C         14.72458       -2.43725        0.56185
C         16.05032       -1.87584        0.10574
O         16.21563       -1.08115       -0.79605
C         17.08434       -2.43970        1.01632
C         16.46760       -3.32155        1.92969
C         15.03857       -3.49711        1.53475
C         14.33546       -4.62475        1.78918
C         13.26714       -5.04283        0.94500
N         12.39771       -5.36726        0.24213
C         14.55794       -5.44012        2.94498
N         14.69547       -6.03476        3.92397
C         17.24532       -3.94570        2.89365
C         18.62738       -3.73857        2.89806
C         19.25114       -2.89274        1.96506
C         18.47451       -2.19697        1.00580
C         19.14571       -1.33807        0.10639
C         20.53525       -1.19374        0.14301
C         21.28541       -1.90252        1.07377
C         20.64615       -2.74389        1.98099
C         13.61070       -1.75073        0.22835
C         12.26714       -1.80590        0.75670
C         11.78969       -2.54250        1.96025
N         10.57104       -2.35852        2.35968
C         10.14127       -1.41780        1.49516
C         11.16051       -1.08017        0.52046
C         10.63731        0.08098       -0.29306
S         11.27658        0.78272       -1.65352
C          9.38955        0.45602        0.45919
C          9.15389       -0.53608        1.47828
N          8.14944       -0.17769        2.31618
C          7.79448        0.97777        1.83632
C          8.51720        1.45025        0.61835
C          8.44238        2.77535        0.13579
C          7.67243        3.27980       -0.99564
C          6.90068        2.61925       -1.99134
O          7.07243        1.24131       -2.15798
C          6.98963        0.75101       -3.51580
C          7.94299        1.42226       -4.49431
C          5.92405        3.35006       -2.69921
C          5.91114        4.73741       -2.72631
C          6.83516        5.42876       -1.89876
C          7.65101        4.68992       -0.99276
S          8.70081        5.28726        0.25370
C          9.00006        3.77218        0.90020
O          6.71603        6.82159       -1.90530
C          7.91504        7.58400       -1.74904
C          7.60568        9.06888       -1.82326
C          4.89940        5.21117       -3.67267
C          4.19102        4.20399       -4.32173
S          4.53205        2.75221       -3.50695
C          3.19768        4.22916       -5.33440
C          2.51059        5.42646       -5.87660
N          1.46992        5.21477       -6.63173
C          1.38184        3.85858       -6.64985
C          2.51487        3.25797       -5.95915
C          2.37250        1.76330       -6.12172
S          3.54454        0.58216       -6.13844
C          0.93947        1.61998       -6.54099
C          0.48204        2.92788       -6.96327
N         -0.79323        2.85845       -7.42045
C         -1.11369        1.61625       -7.18919
C         -0.06698        0.74298       -6.57402
C         -0.29120       -0.62110       -6.16585
C          0.25717       -1.29349       -5.14042
C         -0.04119       -2.75535       -4.81049
O         -1.01257       -3.38423       -5.17290
C          1.09425       -3.22171       -3.94260
C          1.98850       -2.15462       -3.81674
C          1.23861       -0.92881       -4.13006
C          1.01430        0.00469       -3.17033
C          0.08013        1.06875       -3.33450
N         -0.66071        1.93965       -3.48876
C          1.46526       -0.20476       -1.82367
N          1.73242       -0.45803       -0.73162
C          3.27311       -2.31791       -3.33376
C          3.57776       -3.53515       -2.73653
C          2.59919       -4.54245       -2.60864
C          1.33331       -4.41272       -3.25200
C          0.38056       -5.43449       -3.08367
C          0.65683       -6.53413       -2.26604
C          1.88946       -6.64590       -1.62770
C          2.85990       -5.66313       -1.81071
H         16.84686       -4.61937        3.64312
H         19.22607       -4.26848        3.63936
H         18.59391       -0.77225       -0.64221
H         21.03035       -0.53052       -0.56221
H         22.36770       -1.80120        1.09552
H         21.25260       -3.29081        2.70122
H         13.73948       -0.94620       -0.50392
H         12.46402       -3.17378        2.53496
H          7.04113        1.62525        2.31206
H          5.96877        0.78113       -3.88785
H          7.20438       -0.32213       -3.49402
H          7.73115        2.48815       -4.61930
H          7.86613        0.95703       -5.48274
H          8.97085        1.33577       -4.13730
H          9.55694        3.69204        1.82663
H          8.66403        7.29626       -2.49497
H          8.32035        7.46724       -0.75023
H          7.79611        9.45504       -2.82703
H          8.26264        9.61557       -1.13481
H          6.56805        9.28220       -1.55238
H          4.73756        6.26777       -3.85507
H          2.89608        6.42825       -5.63569
H         -2.10374        1.19056       -7.41610
H         -1.04056       -1.14887       -6.75949
H          4.00884       -1.51976       -3.36411
H          4.56497       -3.66684       -2.29414
H         -0.60367       -5.35704       -3.54140
H         -0.10079       -7.29859       -2.11080
H          2.09501       -7.49246       -0.97724
H          3.80988       -5.76101       -1.28708
