96

C          0.19177        9.89210       -9.42248
S         -0.16022       11.54162       -9.02622
C         -1.34316       11.04983       -7.95360
C         -1.49859        9.69504       -7.88944
C         -0.60801        8.99821       -8.72662
C         -2.54024        9.41713       -6.93424
O         -2.97918        8.33639       -6.58874
C         -2.94848       10.79244       -6.43894
C         -2.20539       11.72590       -7.07900
C         -3.89723       11.04606       -5.39151
C         -5.18500       10.68562       -5.42755
C         -6.09162       10.98000       -4.37275
S         -7.47576       10.00561       -4.01682
C         -7.94558       10.93547       -2.59082
C         -7.06089       11.95676       -2.50541
C         -6.09846       11.99848       -3.49082
N         -5.28882       13.08990       -3.37820
N         -5.61632       13.80974       -2.26679
C         -6.65979       13.10531       -1.72839
C         -9.09132       10.56555       -1.78622
S         -9.39522        8.90644       -1.47567
C        -10.84765        9.19202       -0.60277
C        -11.08481       10.56344       -0.51748
C        -10.05168       11.35992       -1.17225
C        -10.13332       12.87137       -1.16909
C        -11.00598       13.42116       -0.02843
C        -10.28593       13.34958        1.31565
F         -9.57324       12.22093        1.49154
F         -9.42506       14.38818        1.43379
F        -11.16148       13.43988        2.34265
C        -12.35676       12.70797       -0.03883
C        -12.24015       11.21164        0.19942
C        -11.54739        8.03234       -0.14168
C        -12.65711        8.07053        0.62015
C        -13.40853        6.93456        1.05185
S        -12.99441        5.32991        0.63285
C        -14.27520        4.60607        1.53926
C        -15.05892        5.61524        2.09991
C        -14.56674        6.94354        1.81518
C        -15.27993        8.17127        2.33460
C        -16.75907        7.90584        2.60263
C        -16.94352        6.69282        3.51761
O        -18.36574        6.51551        3.68053
C        -18.73011        5.42290        4.51775
C        -16.32540        5.44931        2.87163
C        -14.37520        3.13633        1.56773
S        -12.91029        2.20988        1.59429
C        -13.69788        0.69925        1.45770
C        -15.07268        0.86939        1.44660
C        -15.46839        2.26636        1.55776
C        -16.92683        2.62064        1.56294
C        -17.88373        1.46097        1.84203
C        -18.01912        1.18674        3.34588
F        -17.21146        1.95598        4.10791
F        -19.28865        1.45994        3.74122
F        -17.78109       -0.10019        3.67068
C        -17.49122        0.24159        1.01228
C        -16.07891       -0.24598        1.32576
C        -12.87991       -0.46580        1.35834
C        -13.21067       -1.63988        1.90988
H          0.97080        9.66979      -10.13984
H         -0.53865        7.91995       -8.81846
H         -2.24113       12.79352       -6.93762
H         -3.46942       11.55631       -4.53172
H         -5.56683       10.11085       -6.27318
H         -4.55111       13.40020       -3.99777
H         -7.07343       13.46779       -0.79758
H        -10.55816       13.18361       -2.13184
H         -9.15078       13.32584       -1.09408
H        -11.19669       14.48289       -0.23022
H        -12.83645       12.87862       -1.01199
H        -13.02873       13.14434        0.71024
H        -13.18432       10.76547       -0.13166
H        -12.12918       11.03024        1.27576
H        -11.14249        7.07001       -0.44332
H        -13.05335        9.01472        0.95487
H        -15.20730        8.99473        1.61562
H        -14.79129        8.49683        3.26041
H        -17.28775        7.73261        1.65425
H        -17.23297        8.78961        3.04637
H        -16.49452        6.89699        4.49697
H        -19.82167        5.38399        4.57294
H        -18.32572        5.55838        5.52370
H        -18.39576        4.46865        4.10125
H        -17.07176        5.13802        2.13690
H        -16.18693        4.68086        3.64026
H        -17.17592        3.09829        0.60749
H        -17.12840        3.31881        2.35587
H        -18.87576        1.78641        1.50022
H        -17.55131        0.51018       -0.05092
H        -18.20899       -0.57133        1.16934
H        -15.77414       -0.94411        0.53751
H        -16.09300       -0.80357        2.26731
H        -11.92848       -0.38477        0.83547
H        -14.11341       -1.79023        2.48901
H        -12.54946       -2.49510        1.81253
