74

C         -8.47711       -7.81642        8.58843
S        -10.02166       -7.04712        8.55574
C         -9.77734       -6.48564        6.95912
O        -10.60195       -5.85196        6.36633
C         -8.55114       -6.84994        6.46870
C         -7.83839       -7.61229        7.39297
C         -6.62553       -8.02555        6.93378
O         -5.85299       -8.69427        7.55738
S         -6.35102       -7.48735        5.34397
C         -7.88724       -6.64202        5.27291
C         -8.18784       -5.92419        4.07581
C         -8.90757       -4.79393        4.10029
C         -9.16729       -4.05118        2.91741
S        -10.57672       -4.36209        2.01043
C        -10.29586       -3.04306        0.93216
C         -9.12034       -2.36935        1.25537
C         -8.46934       -2.98932        2.38479
C         -7.23469       -2.52842        2.95707
N         -6.23714       -2.15851        3.41599
C         -8.54752       -1.14408        0.60936
F         -9.37093       -0.53614       -0.27699
F         -8.23712       -0.20170        1.53534
F         -7.40297       -1.43868       -0.05661
C        -11.28890       -2.83264       -0.06705
C        -10.97719       -2.43812       -1.30791
C        -11.99350       -2.30487       -2.28164
S        -12.93712       -0.85516       -2.41297
C        -13.80676       -1.46169       -3.74991
O        -14.66640       -0.84783       -4.31517
C        -13.39599       -2.72184       -4.08542
C        -12.38668       -3.18813       -3.25513
C        -11.97110       -4.44769       -3.56652
O        -11.11535       -5.05369       -2.98921
S        -12.83684       -5.07237       -4.88570
C        -13.76403       -3.60270       -5.07836
C        -14.75370       -3.46561       -6.09140
C        -14.65462       -4.07266       -7.28485
C        -15.66457       -3.95891       -8.28777
S        -17.31116       -3.77823       -7.86310
C        -17.84758       -3.72569       -9.49204
C        -16.79071       -3.88350      -10.37784
C        -15.53881       -4.02803       -9.66529
C        -14.26258       -4.19892      -10.31063
N        -13.23303       -4.33935      -10.81974
C        -16.85101       -3.88581      -11.87105
F        -18.06421       -3.55605      -12.37462
F        -15.96410       -3.00761      -12.40215
F        -16.54163       -5.11109      -12.36441
C        -19.24366       -3.51327       -9.64521
C        -20.02045       -4.24396      -10.45790
C        -21.43048       -4.03681      -10.46424
S        -22.27200       -4.00628      -11.98711
C        -23.76562       -3.66013      -11.24446
O        -24.78094       -3.50005      -11.85906
C        -23.65750       -3.60617       -9.88400
C        -22.35170       -3.83933       -9.45210
C        -22.25354       -3.83163       -8.08989
O        -21.25369       -4.03945       -7.46532
S        -23.73999       -3.48131       -7.35167
C        -24.57939       -3.36971       -8.87876
C        -25.97727       -3.08640       -8.96910
C        -26.77235       -2.84404       -7.91877
H         -8.13993       -8.36412        9.45908
H         -7.77500       -6.29090        3.13664
H         -9.29131       -4.36932        5.02298
H        -12.32415       -3.06252        0.18647
H         -9.95404       -2.28731       -1.63838
H        -15.59173       -2.80802       -5.86209
H        -13.77620       -4.66352       -7.53642
H        -19.68980       -2.77157       -8.98342
H        -19.60461       -4.99421      -11.12517
H        -26.42693       -3.06414       -9.96133
H        -26.43324       -2.83676       -6.88836
H        -27.82748       -2.63814       -8.07440
