102

C         -0.94331        1.74859       -1.87607
C         -1.68513        2.86604       -1.59621
S         -1.08416        3.64941       -0.17173
C          0.14646        2.48938        0.02969
Cl         1.21467        2.60345        1.36383
C          0.10998        1.54628       -0.95188
C          0.89501        0.38369       -1.24092
O          1.90798        0.01554       -0.68165
C          0.14474       -0.24338       -2.42146
C         -0.93910        0.70292       -2.87438
C         -1.70506        0.64520       -3.99009
C         -2.67984        1.64022       -4.28626
N         -3.47738        2.44821       -4.52437
C         -1.59723       -0.38417       -4.96465
N         -1.51713       -1.22791       -5.75687
C          0.43185       -1.48150       -2.86029
C          1.44829       -2.36458       -2.34604
C          2.41628       -2.90479       -3.11726
C          3.26374       -3.75140       -2.27291
C          2.70708       -3.63648       -0.91490
C          1.62116       -2.85214       -0.98703
C          3.15350       -4.22301        0.29223
N          3.52253       -4.71542        1.27622
C          4.29228       -4.51372       -2.70134
C          5.09225       -5.38029       -1.84541
C          5.87436       -6.16278       -2.61264
C          5.70986       -5.72107       -3.99544
C          4.79706       -4.73707       -4.06025
C          4.43758       -4.07298       -5.25972
N          4.14700       -3.53609       -6.24243
C          6.71272       -7.17280       -2.05156
S          8.22918       -7.50742       -2.80971
C          8.70431       -8.70648       -1.66362
C          7.72728       -8.81296       -0.68978
C          6.56519       -7.99621       -0.94406
C          5.41756       -8.03772       -0.13146
C          5.52738       -8.89937        0.99494
C          4.36473       -8.96654        1.96913
F          3.33846       -8.12963        1.63342
F          3.80017      -10.20443        2.04297
F          4.71032       -8.62242        3.24126
C          6.70238       -9.68231        1.24961
O          6.63188      -10.49256        2.36180
C          7.87305      -10.78533        2.99674
C          7.83587       -9.68574        0.40357
C          9.94177       -9.41657       -1.78593
C         10.52258       -9.69168       -2.96596
C         11.72527      -10.48974       -3.08083
C         12.93210      -10.03741       -3.49777
N         13.20442       -8.68431       -3.92245
O         12.56918       -7.75663       -3.40693
O         14.09725       -8.54635       -4.76984
C         13.96235      -11.03859       -3.36717
C         13.41486      -12.14588       -2.84421
C         11.96733      -11.92994       -2.71333
C         11.05438      -12.86604       -2.35537
C          9.60990      -12.63476       -2.30035
C          9.03736      -13.68859       -1.70423
C         10.05753      -14.68655       -1.46070
N          9.73398      -16.00128       -0.93113
O          8.55018      -16.20293       -0.62961
O         10.63772      -16.83451       -0.78600
C         11.27295      -14.27948       -1.89896
C         12.47187      -15.09449       -1.96524
C         13.09102      -15.37327       -3.12488
C         14.27263      -16.20256       -3.21845
C         14.99135      -16.51753       -4.31051
C         16.35892      -17.14716       -4.05022
O         16.76363      -17.67930       -3.03549
C         17.06086      -16.87233       -5.27354
C         18.32210      -17.11040       -5.72779
S         18.55545      -16.47939       -7.29502
C         16.92139      -15.90901       -7.38861
C         16.24548      -16.22705       -6.24080
C         14.88642      -16.15704       -5.75545
C         13.77860      -16.07089       -6.52795
C         13.84618      -15.71139       -7.90450
N         13.90775      -15.39071       -9.01762
C         12.48869      -16.44790       -6.06067
N         11.43439      -16.76667       -5.69640
Cl        19.60203      -17.93669       -4.94579
H         -2.53954        3.29808       -2.09887
H         -0.11971       -1.94487       -3.67179
H          2.53364       -2.71187       -4.17094
H          0.98377       -2.57601       -0.15907
H          5.07004       -5.40472       -0.77122
H          6.27724       -6.12139       -4.82430
H          4.50670       -7.47802       -0.30829
H          7.65525      -11.28474        3.94479
H          8.42931       -9.86732        3.21566
H          8.47222      -11.47512        2.39431
H          8.69790      -10.31009        0.57963
H         10.38149       -9.81565       -0.87443
H         10.12146       -9.31401       -3.90382
H         15.00592      -10.87718       -3.59258
H         13.97805      -13.02126       -2.57637
H          9.05986      -11.80252       -2.70516
H          7.98086      -13.82705       -1.52555
H         12.82101      -15.52559       -1.02706
H         12.70291      -14.91213       -4.02579
H         14.64648      -16.55337       -2.25102
H         16.59347      -15.41251       -8.29253
