112

C          4.50602       -3.88732        3.34761
C          5.68803       -4.48495        3.61710
C          6.74557       -3.77207        4.24570
N          7.59590       -3.16212        4.74464
C          5.97274       -5.81325        3.18057
N          6.17548       -6.89706        2.82735
C          4.12184       -2.47641        3.61170
C          3.26649       -2.06976        2.57399
C          2.67207       -0.82317        2.51063
C          2.82302        0.01439        3.61768
C          3.52443       -0.45050        4.76005
C          4.24034       -1.67147        4.73481
C          3.36753        0.21556        6.08063
O          4.22332        0.25291        6.94334
O          2.06865        0.58074        6.19444
C          1.67234        1.14135        7.44671
C          2.20791        1.30882        3.57102
N          1.71768        2.35820        3.50410
C          2.87448       -3.23900        1.76722
O          2.20121       -3.21535        0.76139
C          3.41045       -4.42014        2.52919
C          2.78476       -5.58911        2.74227
C          1.44586       -5.84885        2.33591
S          0.95895       -7.44797        1.96050
C         -0.68360       -6.99179        1.69517
C         -0.85348       -5.63988        1.93749
C          0.35886       -4.99663        2.29603
C         -2.10170       -4.93529        1.87757
N         -3.10190       -4.35314        1.81418
C         -1.60535       -8.00668        1.31987
C         -2.65790       -7.73788        0.53506
C         -3.61791       -8.72653        0.16711
N         -3.88549       -9.07316       -1.15550
C         -3.22181       -8.53819       -2.33010
C         -1.99398       -9.34083       -2.73276
C         -4.85368      -10.09395       -1.22994
O         -5.30297      -10.68015       -2.19277
C         -5.19583      -10.31500        0.18560
C         -4.39072       -9.44138        0.98729
C         -4.72034       -9.68453        2.40348
O         -4.21772       -9.15999        3.37673
N         -5.70862      -10.68962        2.32115
C         -6.27647      -11.31234        3.50174
C         -7.48469      -10.56265        4.04046
C         -5.96918      -11.03538        0.99402
C         -6.88311      -12.04912        0.57272
C         -8.20166      -12.01017        0.80964
C         -9.12873      -13.05018        0.36614
C        -10.44927      -12.70591        0.07402
C        -11.34432      -13.69816       -0.35228
N        -12.69915      -13.26988       -0.64787
O        -13.34108      -12.76017        0.28019
O        -13.10074      -13.40803       -1.81130
C        -10.96800      -15.04596       -0.47187
C         -9.63645      -15.36552       -0.16102
C         -8.73766      -14.38864        0.26862
C        -11.87478      -16.10675       -0.94044
C        -11.77262      -17.38826       -0.55916
C        -12.63791      -18.41453       -1.08965
C        -12.31996      -19.71096       -1.22365
C        -13.09344      -20.79903       -1.86048
C        -14.44391      -20.92326       -1.88433
C        -15.09476      -22.07097       -2.40905
N        -15.62123      -23.01294       -2.84108
C        -15.31842      -19.95198       -1.31331
N        -16.02646      -19.15716       -0.84935
C        -12.09647      -21.82605       -2.29429
C        -10.86666      -21.51732       -1.69653
C        -10.94185      -20.25083       -0.96259
O        -10.02322      -19.76895       -0.33421
C         -9.71303      -22.26766       -1.86238
C         -9.76500      -23.37564       -2.71004
C        -10.97224      -23.68356       -3.38025
C        -12.14360      -22.91377       -3.15947
C        -11.07802      -24.78947       -4.36772
O        -12.08791      -25.44693       -4.53978
O         -9.93753      -24.84306       -5.08747
C         -9.90999      -25.80627       -6.14178
C         -8.56215      -24.14039       -2.86825
N         -7.56508      -24.72872       -2.97322
H          2.03204       -0.55352        1.67330
H          4.76075       -2.01560        5.62709
H          0.63210        1.46778        7.34711
H          2.28570        2.01024        7.69989
H          1.72172        0.37848        8.22789
H          3.22255       -6.33082        3.40794
H          0.40754       -3.94115        2.53523
H         -1.42923       -9.02232        1.67178
H         -2.84316       -6.75076        0.12202
H         -2.94747       -7.49239       -2.15604
H         -3.93803       -8.54938       -3.15916
H         -1.23088       -9.32440       -1.94800
H         -1.55259       -8.92003       -3.64244
H         -2.24972      -10.38645       -2.93193
H         -5.50473      -11.33202        4.28051
H         -6.53319      -12.35435        3.28335
H         -7.23202       -9.52752        4.28863
H         -7.86358      -11.05366        4.94214
H         -8.30044      -10.53196        3.31603
H         -6.44187      -12.84230       -0.02753
H         -8.64579      -11.16295        1.32249
H        -10.78148      -11.67266        0.16125
H         -9.26313      -16.38494       -0.24969
H         -7.72620      -14.69930        0.52327
H        -12.63112      -15.82197       -1.66843
H        -11.01482      -17.69478        0.15803
H        -13.59506      -18.03500       -1.43863
H         -8.79187      -21.97399       -1.36276
H        -13.04493      -23.17321       -3.71156
H         -9.04621      -25.57513       -6.77167
H        -10.81197      -25.74273       -6.75672
H         -9.78371      -26.81283       -5.73244
