117

C         -1.62619        2.47286        1.17681
C         -1.56841        3.21172        2.30579
C         -2.63290        3.21807        3.24965
N         -3.51497        3.21595        4.00642
C         -0.39826        3.93745        2.66474
N          0.56693        4.49389        3.00018
C         -2.65616        1.48179        0.81129
C         -2.02398        0.45571        0.09081
C         -2.71318       -0.63205       -0.41406
C         -4.11299       -0.62904       -0.30200
C         -4.77795        0.47350        0.31450
C         -4.03657        1.51021        0.90739
C         -6.17819        0.53405        0.28068
C         -6.92122       -0.48376       -0.31732
C         -6.27592       -1.59067       -0.86120
C         -4.88151       -1.66477       -0.85245
C         -0.63535        0.86819       -0.24860
O          0.19414        0.23509       -0.86426
C         -0.56839        2.31092        0.18145
C         -0.01250        3.18633       -0.67976
C         -0.43725        4.55043       -0.86106
S         -2.07650        5.01802       -0.58503
C         -1.79903        6.64464       -0.98745
C         -0.61631        6.76260       -1.68590
C          0.25751        5.63343       -1.40250
C          1.73693        5.67995       -1.74662
N          2.61509        5.56053       -0.50328
O          3.69918        4.98008       -0.64690
O          2.22611        6.11416        0.53374
C          2.16405        7.00296       -2.42445
C          1.08366        7.58029       -3.34079
C         -0.17522        7.93882       -2.52871
N         -1.24289        8.36195       -3.53491
O         -1.65943        9.52539       -3.45504
O         -1.61180        7.52742       -4.37449
C         -2.80229        7.59404       -0.67865
C         -2.77171        8.21234        0.51234
C         -3.82139        9.06585        0.97087
S         -4.06415        9.18132        2.66841
C         -5.43594       10.20782        2.53216
C         -5.68460       10.49815        1.19226
C         -4.74377        9.85306        0.29687
C         -4.84631       10.00501       -1.20097
C         -5.82705       11.08324       -1.65395
C         -7.11262       11.10142       -0.82320
C         -7.92461        9.80603       -0.95817
C         -6.76523       11.40184        0.64159
C         -6.10206       10.62767        3.72477
C         -7.43176       10.85148        3.76807
C         -7.80247       11.35514        5.08704
C         -6.57097       11.27736        5.88436
C         -5.58397       10.85966        5.07008
C         -6.38381       11.55783        7.25753
N         -6.21748       11.79318        8.38139
C         -9.03358       11.80213        5.41522
C         -9.42837       12.32058        6.72532
C        -10.74333       12.61782        6.69616
C        -11.23629       12.35602        5.35018
C        -10.24138       11.89679        4.57225
C        -10.39396       11.66778        3.18026
N        -10.52127       11.50898        2.04365
C        -11.45855       13.20011        7.80736
C        -12.51525       12.68782        8.45785
C        -13.36457       13.29608        9.51298
C        -12.99775       14.22588       10.42997
C        -13.87610       14.68231       11.45802
N        -14.59329       15.06215       12.28314
C        -11.68878       14.78963       10.48141
N        -10.62685       15.25638       10.51817
C        -14.66081       12.54963        9.48810
C        -14.48749       11.40527        8.70031
C        -13.16254       11.38783        8.07604
O        -12.74425       10.49648        7.36771
C        -15.47672       10.46633        8.46378
C        -16.73631       10.69175        9.01130
C        -16.97057       11.86175        9.78773
C        -15.92290       12.78593       10.02129
C        -18.25959       12.07403       10.29823
C        -19.28753       11.15902       10.05202
C        -19.04582       10.01590        9.29457
C        -17.77505        9.78247        8.77653
H         -2.18637       -1.40933       -0.95997
H         -4.55027        2.35479        1.35953
H         -6.70598        1.39072        0.69634
H         -8.00529       -0.41014       -0.35927
H         -6.85909       -2.39023       -1.31153
H         -4.40118       -2.53108       -1.30274
H          0.66487        2.79352       -1.43923
H          1.98643        4.82583       -2.38728
H          3.08158        6.83132       -3.00045
H          2.41321        7.76795       -1.67611
H          0.85911        6.84192       -4.12310
H          1.46522        8.47173       -3.85310
H          0.01371        8.80701       -1.88583
H         -3.60652        7.71138       -1.39448
H         -1.96042        7.99930        1.20581
H         -5.18849        9.05076       -1.61610
H         -3.86056       10.22400       -1.62675
H         -6.06277       10.93546       -2.71424
H         -5.34211       12.06432       -1.57349
H         -7.74700       11.91763       -1.19090
H         -7.40160        8.93420       -0.55189
H         -8.15104        9.60122       -2.00928
H         -8.87629        9.89213       -0.42210
H         -7.69213       11.33225        1.20274
H         -6.41846       12.43894        0.73456
H         -8.11634       10.67383        2.96458
H         -4.55546       10.68545        5.35346
H         -8.78551       12.46606        7.57838
H        -12.24771       12.56392        5.03233
H        -11.07663       14.18667        8.05485
H        -15.26661        9.60212        7.84025
H        -16.14676       13.68032       10.59551
H        -18.47960       12.95823       10.89344
H        -20.28136       11.33989       10.45328
H        -19.84664        9.30599        9.10348
H        -17.60380        8.88690        8.18159
