83

C         -1.95378        1.21202        1.41383
C         -2.45297        0.22238        2.24821
C         -2.30148       -1.11034        1.88781
C         -1.64692       -1.47633        0.69179
C         -1.13489       -0.46233       -0.15272
N         -0.48139       -0.73884       -1.31243
C         -0.02821        0.29962       -2.04694
C         -0.20324        1.60458       -1.65185
N         -0.84151        1.92268       -0.50936
C         -1.30189        0.89783        0.23329
C         -1.51580       -2.91814        0.33773
C         -1.47163       -3.53027       -0.92230
C         -1.32929       -4.93038       -0.82309
C         -1.25751       -5.33068        0.48898
S         -1.36315       -4.11265        1.60564
C         -1.09167       -6.72717        0.53124
C         -1.06111       -7.21782       -0.75338
C         -1.21786       -6.10470       -1.69150
C         -1.25928       -6.15372       -3.03683
C         -1.14773       -7.38156       -3.74223
N         -1.07324       -8.38471       -4.32391
C         -1.43550       -4.98381       -3.82580
N         -1.58535       -4.03907       -4.48181
C         -0.88574       -8.61905       -0.76720
C         -0.78977       -9.12858        0.52993
S         -0.91286       -7.86090        1.72166
C         -0.60633      -10.50771        0.92810
C          0.02472      -11.53442        0.25723
C         -0.01378      -12.79180        0.98079
N          0.54784      -13.94431        0.50999
C          1.13995      -13.76241       -0.71501
C          1.77951      -14.96738       -1.29987
O          1.79148      -16.05277       -0.73355
C          2.43331      -14.83770       -2.61739
C          2.46185      -13.68058       -3.27851
C          1.84071      -12.46046       -2.73134
O          1.89561      -11.42173       -3.37727
C          1.17576      -12.54924       -1.40854
N          0.62621      -11.38081       -0.95664
C         -0.67010      -12.68879        2.19237
S         -1.24565      -11.08386        2.41182
C         -0.94555      -13.70337        3.18876
C         -1.11020      -15.07421        2.98415
C         -1.44540      -15.73410        4.18666
C         -1.47944      -14.86268        5.25071
S         -1.13809      -13.28795        4.87509
C         -1.82825      -15.57230        6.41569
C         -2.02585      -16.89223        6.08894
C         -1.78315      -17.07664        4.65859
C         -1.86071      -18.21384        3.94276
C         -2.20562      -19.45480        4.54203
N         -2.49400      -20.47470        5.01787
C         -1.61872      -18.23252        2.54341
N         -1.44100      -18.24978        1.39586
C         -2.41598      -17.64799        7.21227
C         -2.49105      -16.86197        8.36762
S         -2.04715      -15.20654        8.01580
C         -2.86008      -17.25228        9.75557
C         -3.48326      -16.30708       10.59691
C         -3.82455      -16.62311       11.90441
C         -3.55738      -17.89691       12.38589
C         -2.96565      -18.86199       11.58745
N         -2.75223      -20.07456       12.13430
C         -2.18087      -21.00472       11.34464
C         -1.82825      -20.73599       10.04386
N         -2.02529      -19.52285        9.48574
C         -2.60572      -18.55594       10.24567
H         -2.07238        2.25748        1.69008
H         -2.95848        0.48834        3.17312
H         -2.71086       -1.86258        2.55897
H          0.48356        0.04625       -2.96800
H          0.16620        2.43562       -2.24097
H         -1.53299       -2.96570       -1.84460
H         -0.82904       -9.24866       -1.64838
H          2.89086      -15.73628       -3.01844
H          2.94230      -13.58286       -4.24671
H         -1.01689      -15.53362        2.00701
H         -2.64240      -18.70710        7.21565
H         -3.71598      -15.30517       10.24195
H         -4.29484      -15.88058       12.54366
H         -3.81949      -18.14794       13.41115
H         -2.01415      -21.97684       11.79340
H         -1.37510      -21.48745        9.40744
