97

C          0.74731        3.52464        4.51135
C          0.61096        3.61192        5.90091
C          1.69723        3.35072        6.73102
C          2.92127        2.98298        6.17766
C          3.05913        2.82897        4.79192
C          4.24576        2.29535        4.27243
C          4.29150        1.93972        2.93490
C          3.25451        2.33387        2.07244
C          2.09656        2.93887        2.54126
C          1.96131        3.12032        3.93182
C          3.56450        1.90976        0.68152
O          2.90615        2.13786       -0.31200
C          4.87377        1.16838        0.77005
C          5.15031        0.97794        2.19381
C          5.64945       -0.14617        2.76218
C          5.69113       -1.37855        2.04268
N          5.61705       -2.40775        1.51192
C          5.99342       -0.22838        4.13809
N          6.31358       -0.25462        5.25458
C          5.66033        0.94619       -0.29760
C          7.05599        0.46996       -0.29966
C          7.36213       -0.65690       -0.98938
C          8.71385       -1.22986       -1.08323
C          9.82529       -0.63873       -0.57860
C          9.60684        0.66962        0.06569
C         10.57359        1.51326        0.48464
Si         9.85495        3.01591        1.35852
C          8.14301        2.33472        0.98639
C          8.20996        1.17634        0.29631
C         11.12450       -1.38862       -0.61988
C         12.06741       -1.34576       -1.66622
C         13.30971       -2.11509       -1.64263
N         14.13189       -2.07373       -2.70895
C         13.79973       -1.29539       -3.77058
C         12.65468       -0.53582       -3.77677
N         11.78246       -0.56350       -2.73214
C         12.31438        0.34926       -4.85612
N         12.06543        1.06808       -5.72910
C         14.72175       -1.32049       -4.86640
N         15.45193       -1.32424       -5.76913
C         13.70147       -2.93079       -0.55765
C         12.74578       -3.04812        0.49249
C         11.43657       -2.26738        0.45826
N         10.65913       -2.52427        1.52492
S         11.45631       -3.62703        2.46304
N         12.84373       -3.82669        1.58448
C         14.98642       -3.70892       -0.47932
C         14.99287       -4.97790       -0.95873
C         16.16419       -5.86211       -0.93017
C         17.39044       -5.49475       -0.48771
C         17.49262       -4.12089        0.02200
C         18.63294       -3.56422        0.48433
Si        18.35549       -1.80087        1.03931
C         16.54179       -1.99272        0.54044
C         16.28753       -3.21912        0.03818
C         18.48054       -6.48298       -0.42973
C         18.99499       -7.20848       -1.43947
C         19.96047       -8.34003       -1.41994
C         20.99228       -8.53262       -0.55211
C         21.91541       -9.61469       -0.67438
N         22.66925      -10.50318       -0.75383
C         21.26212       -7.62886        0.50871
N         21.48516       -6.89771        1.38211
C         19.68643       -9.14281       -2.64809
C         18.83672       -8.39705       -3.47414
C         18.35002       -8.84445       -4.69073
C         18.72673      -10.11691       -5.11958
C         18.24836      -10.62527       -6.33441
C         18.62615      -11.89459       -6.76815
C         19.48545      -12.66771       -5.99261
C         19.96350      -12.17982       -4.77386
C         19.59368      -10.90673       -4.31339
C         20.06079      -10.41228       -3.07304
C         18.47747       -7.12394       -2.84515
O         17.89050       -6.22006       -3.39911
H         -0.12289        3.72448        3.88934
H         -0.35080        3.86895        6.33853
H          1.58797        3.40678        7.81151
H          3.75103        2.75828        6.84626
H          5.06663        2.07566        4.94748
H          1.28593        3.17752        1.85725
H          5.27679        1.20443       -1.28613
H          6.58195       -1.22619       -1.49073
H          8.76769       -2.20408       -1.56135
H         11.63967        1.40034        0.37126
H          7.26364        2.90302        1.24725
H         14.10338       -5.42355       -1.39321
H         15.99088       -6.87021       -1.29325
H         19.60938       -4.02710        0.54404
H         15.86164       -1.16765        0.66322
H         18.83063       -6.62795        0.59022
H         17.67883       -8.21535       -5.26868
H         17.57536      -10.03573       -6.95418
H         18.25069      -12.27764       -7.71376
H         19.78468      -13.65458       -6.33674
H         20.63335      -12.80676       -4.18827
H         20.69237      -11.05715       -2.47012
