95

C         -3.65105       -0.53615       -2.48935
O         -3.14737       -1.27786       -1.67441
C         -3.71195        0.91890       -2.35616
C         -3.99380        1.51460       -3.59534
C         -4.13113        2.89425       -3.63729
C         -3.98065        3.63019       -2.44700
C         -3.70845        2.99093       -1.22677
C         -3.56495        1.61379       -1.16803
Br        -3.56168        4.00596        0.35962
C         -4.13006        0.42441       -4.60647
C         -3.98633        0.54864       -5.94758
C         -3.73144        1.80218       -6.57391
N         -3.51812        2.82890       -7.07182
C         -3.99896       -0.57957       -6.82521
N         -4.02431       -1.49406       -7.53032
C         -4.25237       -0.83769       -3.83061
C         -4.96388       -1.93490       -4.14507
C         -5.21804       -3.05330       -3.28967
C         -5.39760       -3.14979       -1.90490
C         -5.65023       -4.47318       -1.49317
C         -5.66110       -5.33667       -2.55994
S         -5.38490       -4.63161       -4.03562
C         -5.84049       -6.64618       -2.07527
C         -5.90814       -6.61832       -0.70290
C         -5.85676       -5.22444       -0.25526
C         -6.00645       -4.74030        0.99231
C         -6.22209       -5.60312        2.10356
N         -6.39119       -6.30241        3.00851
C         -5.98084       -3.34668        1.27513
N         -5.97015       -2.21300        1.52805
C         -5.95292       -7.92539       -0.16420
C         -5.93155       -8.90551       -1.16901
S         -5.99952       -8.14521       -2.74591
C         -5.88744      -10.39066       -1.06360
C         -5.28319      -11.24737       -2.01838
C         -5.28936      -12.68099       -1.89446
N         -4.75230      -13.41562       -2.89827
C         -4.17675      -12.81684       -3.97060
C         -4.14952      -11.45912       -4.07349
N         -4.68293      -10.68938       -3.09627
C         -3.61324      -10.76337       -5.20412
N         -3.18984      -10.21906       -6.13799
C         -3.59115      -13.68654       -4.94466
N         -3.09831      -14.36916       -5.74379
C         -5.83989      -13.35354       -0.76930
C         -6.44917      -12.52670        0.21941
C         -6.48188      -11.02546        0.06444
N         -7.12687      -10.42396        1.07979
S         -7.60611      -11.59248        2.14017
N         -7.04160      -12.93060        1.35715
C         -5.84934      -14.83487       -0.58782
C         -6.77013      -15.66450        0.07406
C         -6.48124      -17.03335       -0.13016
C         -5.36488      -17.20173       -0.91342
S         -4.55492      -15.80662       -1.26528
C         -5.27537      -18.55217       -1.30696
C         -6.34395      -19.23081       -0.77246
C         -7.07630      -18.34212        0.12771
C         -7.97961      -18.68257        1.06692
C         -8.36385      -20.03994        1.25324
N         -8.64635      -21.16019        1.36969
C         -8.50433      -17.72238        1.97416
N         -8.92287      -16.93808        2.71980
C         -6.49185      -20.50100       -1.36165
C         -5.46602      -20.76503       -2.27814
S         -4.33741      -19.43406       -2.35340
C         -5.28571      -21.85398       -3.18351
C         -5.71949      -23.10189       -2.96119
C         -5.93353      -23.99445       -4.14967
O         -5.40005      -23.93552       -5.23642
C         -7.03192      -24.89881       -3.75216
C         -7.36808      -24.68619       -2.40122
C         -6.37044      -23.75227       -1.82214
C         -5.96454      -23.71963       -0.52964
C         -6.61216      -24.47206        0.48977
N         -7.14615      -25.09227        1.31083
C         -4.80344      -23.00289       -0.11036
N         -3.85871      -22.43126        0.24676
C         -8.49821      -25.29764       -1.88190
C         -9.23247      -26.16217       -2.70527
C         -8.84001      -26.40054       -4.03326
C         -7.73383      -25.75733       -4.58169
Br        -9.85446      -27.58785       -5.09882
H         -4.36867        3.43674       -4.54691
H         -4.08803        4.71340       -2.47669
H         -3.37069        1.08487       -0.24003
H         -5.46006       -1.98335       -5.11268
H         -5.31262       -2.30565       -1.23513
H         -5.95943       -8.16545        0.89264
H         -7.64170      -15.28711        0.59615
H         -7.33261      -21.16441       -1.20430
H         -4.88549      -21.60592       -4.16886
H         -8.84891      -25.11752       -0.86980
H        -10.12052      -26.64642       -2.30154
H         -7.44105      -25.89493       -5.61777
