97

C         -5.87294       -2.30056       -1.21326
C         -5.82705       -2.78185       -2.48059
C         -5.79909       -4.17391       -2.78224
N         -5.77914       -5.30600       -3.03226
C         -5.73517       -1.93051       -3.61676
N         -5.65871       -1.21931       -4.53461
C         -5.81297       -3.11194        0.04268
C         -5.47781       -2.26507        1.10097
C         -5.32883       -2.68159        2.42020
C         -5.54288       -4.04762        2.70623
C         -5.89442       -4.90619        1.65357
C         -6.04098       -4.45672        0.31517
S         -6.11599       -6.52424        2.21976
C         -5.76136       -6.08538        3.81000
C         -5.47446       -4.75465        3.95595
Br        -5.76583       -7.30260        5.23377
C         -5.35809       -0.87634        0.64037
O         -4.95300        0.04339        1.31972
C         -5.81212       -0.87701       -0.79666
C         -6.22618        0.23054       -1.44144
C         -6.19711        1.51986       -0.83785
S         -7.54219        2.07919        0.04627
C         -6.74786        3.52047        0.58864
C         -5.46145        3.57051        0.04027
C         -5.21042        2.48272       -0.88143
C         -3.96192        2.41059       -1.71512
C         -3.29916        3.79199       -1.84445
C         -2.05826        3.65715       -2.61913
N         -1.08981        3.54415       -3.24527
C         -3.05867        4.35763       -0.44088
C         -2.30272        5.62263       -0.46685
N         -1.74006        6.63636       -0.48107
C         -4.40662        4.62747        0.25440
C         -7.50345        4.43531        1.48822
C         -8.89846        4.63802        1.42625
F         -9.63388        3.94907        0.53555
C         -9.63376        5.53592        2.23842
F        -10.93029        5.63796        1.92037
C         -9.10914        6.31253        3.28708
C         -7.70452        6.10264        3.46957
C         -6.89540        5.18025        2.54192
N         -5.60078        5.17571        2.88433
S         -5.38080        6.14513        4.18954
N         -6.93060        6.63538        4.43626
C         -9.89398        7.24178        4.14257
S         -9.11831        8.63578        4.79201
C        -10.39250        9.00507        5.87619
C        -11.53895        8.37678        5.41076
C        -11.25148        7.31980        4.46014
C        -12.36601        6.48613        3.88432
C        -13.73981        6.68531        4.54501
C        -14.76106        6.13129        3.63385
N        -15.53908        5.70139        2.88968
C        -13.98637        8.17677        4.83062
C        -15.33242        8.41241        5.37870
N        -16.38320        8.60250        5.82478
C        -12.94601        8.69172        5.84189
C        -10.25576        9.99747        6.90022
C         -9.12616       10.32664        7.54877
C         -7.74071        9.84552        7.51402
C         -7.31834        8.56870        7.67933
C         -5.93666        8.21373        7.70100
N         -4.81375        7.93399        7.70182
C         -8.23208        7.50284        7.93903
N         -8.96782        6.64019        8.18778
C         -6.88744       11.05988        7.57705
C         -7.66832       12.10853        8.07652
C         -9.08082       11.68588        8.18606
O        -10.00673       12.34237        8.61203
C         -7.17670       13.38556        8.31260
C         -5.82045       13.63436        7.99235
C         -5.05388       12.59725        7.43456
C         -5.57009       11.29777        7.21368
S         -3.45213       13.13122        7.06894
C         -3.76260       14.67702        7.66805
C         -5.04284       14.83651        8.12708
Br        -2.47753       16.03938        7.69473
H         -5.07391       -1.97025        3.20154
H         -6.33802       -5.17558       -0.43970
H         -5.22749       -4.29113        4.90378
H         -6.64911        0.19565       -2.43902
H         -4.20804        2.03485       -2.71653
H         -3.26896        1.68804       -1.26221
H         -3.97326        4.46968       -2.38844
H         -2.48669        3.62769        0.15364
H         -4.81988        5.58978       -0.07125
H         -4.15798        4.69460        1.31071
H        -12.10338        5.42214        3.92854
H        -12.46064        6.77868        2.83015
H        -13.76816        6.12368        5.48828
H        -13.88965        8.74585        3.89385
H        -13.11810        8.25392        6.83387
H        -13.06482        9.77830        5.94526
H        -11.14447       10.59638        7.10208
H         -7.82196       14.16814        8.70238
H         -4.93919       10.54334        6.75549
H         -5.42340       15.76245        8.54135
