101

C        -11.17472       -0.04602       -1.56830
C        -12.52296       -0.26180       -1.29078
F        -13.43220        0.61784       -1.73237
C        -12.92574       -1.37614       -0.56963
F        -14.22576       -1.59145       -0.32715
C        -11.98642       -2.28008       -0.08831
C        -10.62227       -2.07275       -0.33627
C        -10.20289       -0.95128       -1.11057
C         -8.83267       -0.77220       -1.41634
C         -7.88844       -1.67601       -0.93726
C         -8.33914       -2.73829       -0.14251
C         -9.67146       -2.96319        0.16486
C         -7.22616       -3.60739        0.25349
O         -7.27692       -4.46281        1.11130
C         -6.05794       -3.16731       -0.58071
C         -6.40722       -1.82240       -1.11326
C         -5.55433       -0.86590       -1.55420
C         -4.14390       -1.06392       -1.58094
N         -2.99752       -1.23600       -1.60927
C         -5.98313        0.42596       -1.97964
N         -6.33379        1.47214       -2.33147
C         -5.04404       -3.99090       -0.90512
C         -4.95653       -5.34427       -0.46014
C         -4.35756       -5.86277        0.68957
C         -4.46985       -7.27109        0.73810
C         -5.15520       -7.76410       -0.35048
S         -5.63030       -6.61327       -1.45151
C         -5.29358       -9.16320       -0.20868
C         -4.69689       -9.55386        0.97033
C         -4.10479       -8.38262        1.62016
C         -3.36958       -8.34190        2.74814
C         -3.07253       -9.51916        3.49105
N         -2.82954      -10.47787        4.09654
C         -2.82656       -7.12460        3.24248
N         -2.37615       -6.13293        3.64356
C         -4.86608      -10.93664        1.20703
C         -5.58304      -11.53832        0.17327
S         -6.00714      -10.39501       -1.06616
C         -5.98092      -12.92045        0.08418
N         -6.15164      -13.56155       -1.12650
C         -6.50591      -14.85841       -0.88173
C         -6.81454      -16.07910       -1.53127
C         -7.07843      -16.97618       -0.50753
N         -6.95530      -16.32461        0.70379
C         -6.58400      -15.03252        0.45816
C         -6.24974      -13.81918        1.10832
C         -7.42403      -18.34978       -0.45095
C         -7.15291      -19.20298       -1.45330
C         -7.41162      -20.60935       -1.33575
S         -6.35243      -21.69715       -2.17432
C         -7.01679      -23.12343       -1.44998
C         -8.01014      -22.75856       -0.55912
C         -8.34771      -21.35026       -0.63187
C         -9.44732      -20.78830        0.04032
C        -10.12437      -21.70745        0.86818
S        -11.56643      -21.12494        1.76399
C         -9.71185      -23.06941        1.01130
O        -10.35401      -23.89429        1.90810
C         -8.66100      -23.66260        0.29303
C         -6.47931      -24.38551       -1.85986
C         -7.25059      -25.47971       -1.97171
C         -6.74708      -26.76687       -2.40868
C         -7.47062      -27.75366       -2.96401
C         -7.06109      -29.11791       -3.38070
C         -5.82036      -29.53094       -3.73959
C         -5.55506      -30.83537       -4.24556
N         -5.34574      -31.89859       -4.65684
C         -4.67921      -28.66948       -3.71794
N         -3.75680      -27.97408       -3.69997
C         -8.32235      -29.90850       -3.53732
C         -9.40781      -29.02320       -3.49816
C         -8.95615      -27.66000       -3.20070
O         -9.68540      -26.69373       -3.16109
C        -10.72950      -29.41070       -3.66737
C        -10.98663      -30.76641       -3.85524
C         -9.92478      -31.69159       -3.84891
C         -8.59227      -31.26367       -3.68499
Cl       -10.19352      -33.39040       -4.03035
Cl       -12.63135      -31.24676       -4.06820
H        -10.90190        0.83694       -2.14099
H        -12.33463       -3.14259        0.47398
H         -8.55523        0.06654       -2.04725
H         -9.94884       -3.82812        0.76132
H         -4.27514       -3.69681       -1.61203
H         -3.89436       -5.22807        1.43528
H         -4.51252      -11.49209        2.06731
H         -6.02976      -13.17119       -2.05142
H         -6.83961      -16.27791       -2.59352
H         -7.07897      -16.70523        1.63373
H         -6.21748      -13.62677        2.17210
H         -7.87666      -18.70547        0.46962
H         -6.61697      -18.85422       -2.33342
H         -9.76826      -19.75972       -0.06009
H        -12.44571      -21.88530        1.09103
H        -10.92327      -23.32018        2.45351
H         -8.39656      -24.70103        0.43541
H         -5.43763      -24.42219       -2.17262
H         -8.31167      -25.42294       -1.74108
H         -5.68691      -26.89486       -2.20859
H        -11.52857      -28.67486       -3.63947
H         -7.81150      -32.01716       -3.66421
