120

C         -9.92672       -0.09271       -1.62820
C        -10.59925        0.59895       -0.62096
F        -11.72016        1.26742       -0.92445
C        -10.12547        0.59600        0.68271
F        -10.79590        1.23710        1.64997
C         -8.94360       -0.06057        0.99769
C         -8.23481       -0.73443       -0.00661
C         -8.75048       -0.79882       -1.34109
C         -8.07905       -1.55557       -2.34170
C         -6.89190       -2.19476       -2.02984
C         -6.37124       -1.97854       -0.74738
C         -7.00538       -1.31281        0.28283
C         -5.00151       -2.45495       -0.76516
O         -4.06720       -1.69079       -0.59650
C         -5.01861       -3.62726       -1.66932
C         -5.92886       -3.11543       -2.73376
C         -5.72456       -3.23906       -4.06392
C         -6.48042       -2.49331       -5.01091
N         -7.09375       -1.86331       -5.76610
C         -4.65825       -4.03173       -4.57803
N         -3.79754       -4.70049       -4.97451
C         -4.55855       -4.87744       -1.45529
C         -3.96019       -5.45457       -0.27661
S         -3.64261       -7.17462       -0.21463
C         -3.17583       -7.18025        1.46416
C         -3.33871       -5.90801        1.89807
C         -3.59519       -4.92135        0.93647
S         -3.41090       -3.25402        1.54756
C         -3.43523       -3.90184        3.13342
C         -3.56716       -2.99151        4.24569
O         -4.04827       -3.27802        5.33388
O         -3.02087       -1.78710        3.91948
C         -2.76388       -0.89944        5.00233
C         -4.02171       -0.16564        5.41297
C         -3.27777       -5.28542        3.18363
C         -2.71989       -8.38581        2.08055
C         -2.32477       -8.43992        3.36658
C         -1.79689       -9.59816        4.07124
C         -2.18814      -10.83768        3.73533
C         -1.63402      -11.99999        4.35983
C         -0.64524      -11.94967        5.43303
C         -0.17995      -10.81466        5.95080
S         -0.70421       -9.23895        5.41428
C         -0.25993      -13.28579        5.67734
C         -0.94063      -14.12688        4.82530
C         -0.56085      -15.47233        4.94230
C          0.41288      -15.59733        5.92443
S          0.83766      -14.07769        6.65480
C         -1.79583      -13.30479        4.01489
C         -2.50696      -13.69322        2.83983
C         -3.55699      -14.50598        2.74526
C         -4.07073      -14.69017        1.44222
S         -5.34394      -13.76363        0.70830
C         -5.50019      -14.88361       -0.66052
C         -4.35268      -15.61954       -0.61442
C         -3.59877      -15.61794        0.56158
S         -2.27897      -16.86503        0.70855
C         -2.69002      -17.25275       -0.93351
C         -1.92830      -18.14718       -1.77185
O         -2.03830      -18.19394       -2.99085
O         -1.25703      -19.04396       -1.01621
C         -1.28991      -20.37377       -1.53438
C         -2.69005      -20.94623       -1.35096
C         -3.84876      -16.65298       -1.41264
C         -6.70477      -14.90303       -1.44391
C         -7.08059      -15.77042       -2.40274
C         -6.46604      -16.96186       -2.93121
C         -6.34317      -18.15252       -2.32590
C         -5.89777      -19.37338       -3.15093
O         -5.28876      -19.41405       -4.16968
C         -6.62382      -20.51516       -2.45345
C         -6.84784      -21.78453       -2.90417
C         -8.00233      -22.43020       -2.41939
C         -8.89328      -21.72127       -1.55587
C        -10.20953      -22.18707       -1.39003
C        -10.56826      -23.40564       -1.94030
C         -9.62421      -24.19377       -2.58555
C         -8.34385      -23.70873       -2.84023
F         -9.95386      -25.42466       -3.01052
F        -11.84574      -23.80811       -1.85502
C         -8.53576      -20.54760       -0.97646
C         -7.33388      -19.98799       -1.38925
C         -6.82648      -18.67512       -1.04930
C         -6.71272      -18.35793        0.25964
C         -6.34198      -17.17587        0.90132
N         -6.20654      -16.45364        1.78039
C         -6.97931      -19.23095        1.36170
N         -7.11441      -19.70968        2.40151
H        -10.33128       -0.05980       -2.63599
H         -8.58787       -0.03033        2.02470
H         -8.50670       -1.61235       -3.34060
H         -6.53821       -1.23885        1.26058
H         -4.77079       -5.60802       -2.23719
H         -2.01321       -0.18439        4.64945
H         -2.31801       -1.45343        5.83452
H         -4.39015        0.45517        4.59003
H         -3.82198        0.47023        6.27845
H         -4.82646       -0.86161        5.66634
H         -3.16709       -5.77795        4.13902
H         -2.65010       -9.27173        1.45361
H         -2.34629       -7.56053        3.99247
H         -2.91408      -10.99437        2.94385
H          0.58177      -10.83582        6.72258
H         -0.94378      -16.30072        4.35970
H          0.91235      -16.49817        6.25373
H         -2.16253      -13.19703        1.93123
H         -3.98089      -15.03711        3.60194
H         -0.58646      -20.94439       -0.92528
H         -0.95673      -20.42359       -2.57785
H         -3.05574      -20.75892       -0.33461
H         -2.69938      -22.02040       -1.54400
H         -3.40495      -20.46935       -2.02941
H         -4.22234      -16.97071       -2.36622
H         -7.45812      -14.15436       -1.19488
H         -8.02037      -15.55772       -2.92082
H         -6.14584      -16.88005       -3.98316
H         -6.24520      -22.21425       -3.69787
H        -10.96680      -21.58199       -0.90312
H         -7.64837      -24.32788       -3.39931
H         -9.16861      -20.03114       -0.23603
