94

C        -13.76925       -3.33009        2.97754
C        -14.95030       -3.22588        3.70257
C        -16.18834       -3.43997        3.05303
C        -17.39362       -3.31800        3.82504
N        -18.35596       -3.21361        4.46497
C        -16.23595       -3.77560        1.68138
C        -17.47921       -4.03278        1.01349
N        -18.47500       -4.25205        0.45821
C        -15.04923       -3.88997        0.95106
C        -13.85421       -3.66929        1.61811
C        -12.51401       -3.82165        1.04010
O        -12.26356       -3.89389       -0.14258
C        -11.57074       -3.79294        2.20601
C        -12.32336       -3.20511        3.33762
C        -11.80890       -2.53025        4.39539
C        -12.62961       -1.88371        5.36186
N        -13.31968       -1.35876        6.13334
C        -10.40469       -2.34958        4.57011
N         -9.25848       -2.21970        4.69195
C        -10.36924       -4.39081        2.19034
C         -9.86981       -5.07892        1.05456
S         -8.84661       -4.26778       -0.05376
C         -8.66591       -5.76191       -0.92119
N         -9.36645       -6.73936       -0.36483
N        -10.04829       -6.35131        0.77054
C         -7.77646       -5.85477       -2.05768
C         -7.61809       -7.08873       -2.61022
C         -6.60996       -7.32543       -3.63261
C         -6.16176       -8.46638       -4.23342
C         -6.65140       -9.91870       -4.16986
C         -5.92092      -10.71237       -3.04826
N         -6.28373      -12.13530       -2.98336
C         -8.20710      -10.02451       -4.06387
N         -8.75723      -11.38226       -3.96192
C         -4.96972       -8.02738       -4.98908
C         -3.97318       -8.71274       -5.57802
C         -2.72210       -8.01961       -6.12977
C         -2.79932       -6.49606       -6.12787
C         -3.80618       -5.81389       -5.56029
C         -4.84311       -6.57095       -4.91486
C         -5.80460       -6.16511       -4.07981
C         -6.06078       -4.85051       -3.55727
C         -6.98547       -4.72003       -2.59163
C         -2.37344       -8.51227       -7.51059
C         -1.10870       -8.58913       -7.96384
C         -0.82786       -9.03383       -9.28009
S          0.67457       -9.81619       -9.61280
C          0.21093       -9.88520      -11.27281
N         -0.96166       -9.32519      -11.49350
N         -1.58693       -8.90305      -10.34867
C          1.11523      -10.40505      -12.23684
C          0.85714      -10.43183      -13.55218
C          2.05234      -10.47334      -14.45336
O          3.16114      -10.89266      -14.20904
C          1.63452       -9.76735      -15.67727
C          2.46878       -9.37345      -16.71212
C          1.91615       -8.59675      -17.73951
C          0.55325       -8.22744      -17.68522
C         -0.26892       -8.64636      -16.62024
C          0.26765       -9.44181      -15.61634
C         -0.29833      -10.06118      -14.38218
C         -1.58912      -10.43752      -14.19774
C         -1.98313      -11.33623      -13.15350
N         -2.28547      -12.10094      -12.34357
C         -2.62773      -10.07174      -15.09883
N         -3.44688       -9.76066      -15.85605
C         -0.02895       -7.40902      -18.71104
N         -0.51629       -6.74182      -19.52907
C          2.76742       -8.17465      -18.81522
N          3.46949       -7.84026      -19.67283
H        -14.95567       -3.00410        4.76754
H        -15.04565       -4.16982       -0.10105
H         -9.74588       -4.46620        3.07365
H         -8.17068       -7.92578       -2.21015
H         -6.39225      -10.39217       -5.12878
H         -6.13238      -10.25659       -2.07510
H         -4.83827      -10.67170       -3.20560
H         -7.31631      -12.17942       -3.00526
H         -6.02590      -12.51834       -2.07598
H         -8.66346       -9.52797       -4.92823
H         -8.56824       -9.52341       -3.17164
H         -8.49093      -11.92161       -4.78576
H         -9.77573      -11.33585       -3.94597
H         -3.98251       -9.79893       -5.57907
H         -1.89807       -8.28571       -5.45224
H         -1.97560       -5.94132       -6.57098
H         -3.82589       -4.73096       -5.55226
H         -5.49096       -3.99733       -3.90545
H         -7.14714       -3.73346       -2.16976
H         -3.19817       -8.80834       -8.15409
H         -0.27144       -8.28268       -7.34032
H          2.11847      -10.65218      -11.89065
H          3.52392       -9.64379      -16.70278
H         -1.30694       -8.31990      -16.59771
