92

C          0.05959       -5.86667        0.73243
O          1.09245       -5.40817        0.28057
C         -1.02585       -5.17928        1.36129
C         -2.10937       -5.96833        1.63881
C         -3.12504       -5.24236        2.29682
C         -2.74495       -3.92001        2.47651
S         -1.17594       -3.58530        1.83487
C         -1.85768       -7.31463        1.16635
C         -2.77657       -8.30027        1.03975
C         -4.13060       -8.12466        1.44779
N         -5.23280       -7.98354        1.78191
C         -2.48428       -9.55422        0.43992
N         -2.23889      -10.57740       -0.05529
C         -0.41171       -7.32637        0.73804
C          0.42312       -8.37036        0.57973
C          1.85207       -8.32604        0.29021
C          2.30434       -7.78956       -0.85797
C          3.70599       -7.70504       -1.16056
C          4.74150       -8.21560       -0.25548
C          4.48772       -8.81631        0.90607
S          2.87419       -9.07565        1.51398
C          5.97962       -7.96461       -0.88335
C          5.76395       -7.35815       -2.09782
C          6.94371       -7.08510       -2.80632
C          8.04072       -7.50449       -2.06603
S          7.59544       -8.21268       -0.54205
C          4.34025       -7.18950       -2.25244
C          3.72051       -6.59628       -3.40878
C          2.91446       -5.52546       -3.34680
C          2.32734       -5.00021       -4.52076
N          2.06091       -3.64892       -4.53747
C          1.57167       -3.33273       -5.77361
C          1.14446       -2.23849       -6.56196
C          0.80290       -2.79130       -7.78639
N          0.96153       -4.15955       -7.72699
C          1.47118       -4.47160       -6.49938
C          1.93849       -5.56005       -5.72810
C          0.34446       -2.25909       -9.01551
C          0.66114       -1.01193       -9.40524
C          0.25874       -0.35641      -10.65679
C          0.68118        0.90620      -10.90463
C          0.30587        1.64053      -12.09427
C         -0.57525        1.03838      -13.10513
C         -1.08001       -0.19046      -13.05097
S         -0.76708       -1.28490      -11.75551
C         -0.76878        1.99914      -14.10875
C         -0.07589        3.14214      -13.79595
C         -0.25897        4.14365      -14.76945
C         -1.08446        3.69312      -15.78963
S         -1.62520        2.07251      -15.54057
C          0.60773        2.91055      -12.52684
C          1.46651        3.86582      -11.83604
C          1.74482        5.10861      -12.26334
C          2.60977        6.06455      -11.62234
C          2.50511        6.59690      -10.39881
C          3.71546        7.34981       -9.86983
O          4.62332        7.82877      -10.52617
C          3.52081        7.28613       -8.45466
C          2.33680        6.69957       -8.08012
C          1.56248        6.38926       -9.26584
C          0.22629        6.18352       -9.31589
C         -0.53745        5.94605       -8.13824
N         -1.14441        5.72283       -7.17477
C         -0.52146        6.30599      -10.52255
N         -1.15023        6.46602      -11.48509
C          2.20911        6.63410       -6.67789
C          3.31977        7.19441       -6.06076
S          4.49101        7.77786       -7.19072
H         -4.08136       -5.61581        2.64252
H         -3.30634       -3.12731        2.95316
H          0.07755       -9.38946        0.73500
H          1.61313       -7.36372       -1.57865
H          5.30202       -9.18506        1.52140
H          7.01260       -6.61861       -3.78063
H          9.08639       -7.43543       -2.33328
H          3.97159       -7.05711       -4.36092
H          2.71873       -5.03968       -2.39135
H          2.22752       -2.96875       -3.80682
H          1.10071       -1.19560       -6.28281
H          0.78713       -4.84391       -8.45231
H          1.99837       -6.60116       -6.01345
H         -0.25779       -2.91009       -9.64417
H          1.29005       -0.41331       -8.74808
H          1.31779        1.41424      -10.18796
H         -1.72308       -0.55608      -13.84471
H          0.14875        5.14295      -14.77665
H         -1.40248        4.23863      -16.66689
H          1.92412        3.51737      -10.91302
H          1.35711        5.48364      -13.20051
H          3.44765        6.36852      -12.25568
H          1.38034        6.22622       -6.11231
H          3.50656        7.29972       -5.00041
