120

C         16.00773       15.77230       -0.85027
C         15.64323       16.89473       -1.58164
F         16.01851       18.10653       -1.15174
C         14.87695       16.78292       -2.73380
C         14.46570       15.52205       -3.17369
C         14.79609       14.36956       -2.44290
C         15.57803       14.50480       -1.25608
C         15.85463       13.38930       -0.45264
C         15.27459       12.17237       -0.77022
C         14.57115       12.03742       -1.98003
C         14.33411       13.10321       -2.83236
C         14.06055       10.65819       -2.12762
O         13.45804       10.20159       -3.07477
C         14.46982        9.94523       -0.87515
C         15.02377       10.94664        0.04144
C         14.67398       11.09634        1.34301
C         13.39871       10.62213        1.80023
N         12.33069       10.34723        2.12791
C         15.38325       11.94952        2.23460
N         16.00424       12.62492        2.94551
C         14.42403        8.60808       -0.78465
C         14.95938        7.80556        0.27131
C         16.37559        7.72156        0.72255
N         16.63245        6.89897        1.70002
C         15.41342        6.36527        1.97265
C         14.40545        6.92255        1.10161
C         13.07463        6.33615        1.45227
S         11.61072        6.59555        0.71884
C         13.42193        5.46577        2.61905
C         14.85611        5.51533        2.82633
N         15.22557        4.74255        3.87897
C         14.08315        4.28544        4.30661
C         12.86123        4.73483        3.57685
C         11.51629        4.42500        3.97732
C         11.17344        4.70951        5.26295
C          9.95081        4.16838        5.81599
C          9.48414        4.16943        7.09255
C          9.95852        4.99383        8.27901
C          8.81098        5.90819        8.80638
N          9.20034        6.73828        9.95459
C         10.59916        4.19376        9.43681
N         11.80975        3.46066        9.05512
C          8.42526        3.15474        7.06603
C          7.91909        2.37548        8.03593
C          6.98295        1.21172        7.72880
C          6.48623        1.17451        6.28640
C          7.02361        1.93245        5.31429
C          8.10730        2.80342        5.68095
C          9.06707        3.37115        4.93946
C          9.35336        3.27792        3.52981
C         10.53220        3.76299        3.08858
C          5.86183        1.19607        8.73547
C          4.69479        1.84679        8.61589
C          3.65408        1.77458        9.58582
C          3.76066        1.52083       11.04559
N          2.64149        1.41128       11.70685
C          1.70547        1.57121       10.73646
C          2.33284        1.87517        9.47670
C          1.28303        2.10179        8.44864
S          1.45604        2.85390        6.97807
C          0.05571        1.61201        9.16024
C          0.39562        1.43791       10.56208
N         -0.69752        1.08732       11.28340
C         -1.61313        0.96153       10.36662
C         -1.19705        1.20767        8.95239
C         -2.06397        1.05803        7.82207
C         -1.78477        0.72932        6.55015
C         -2.84744        1.00545        5.52423
O         -4.04641        1.06522        5.69360
C         -2.11300        1.29219        4.27812
C         -2.64801        1.82496        3.11826
C         -1.76437        2.21382        2.10459
C         -0.35714        2.07522        2.29728
C          0.51391        2.52676        1.29613
C          0.00624        3.08176        0.12628
C         -1.36149        3.19936       -0.07897
C         -2.24650        2.76863        0.90934
F          0.85236        3.50990       -0.81952
C          0.14436        1.50080        3.48277
C         -0.74025        1.07494        4.46394
C         -0.55508        0.44728        5.80148
C          0.45736       -0.38285        6.14896
C          0.43329       -1.13278        7.35907
N          0.42292       -1.72816        8.35310
C          1.61447       -0.56934        5.34064
N          2.58128       -0.69149        4.70668
H         16.58875       15.91098        0.05762
H         14.59404       17.67960       -3.27570
H         13.85442       15.45354       -4.07177
H         16.44798       13.52026        0.44725
H         13.73919       12.95998       -3.73043
H         13.98437        8.04190       -1.60820
H         17.14049        8.34456        0.23495
H         13.97937        3.60023        5.16342
H         11.85830        5.20178        5.94411
H         10.73307        5.68483        7.91449
H          7.94582        5.30654        9.10462
H          8.47591        6.57920        8.00503
H          8.42341        7.34358       10.22130
H          9.96779        7.35829        9.69782
H          9.88387        3.49578        9.87555
H         10.88811        4.87672       10.24379
H         12.50009        4.11877        8.69755
H         12.22099        3.06933        9.90369
H          8.24983        2.46823        9.06169
H          7.55136        0.28094        7.87324
H          5.69484        0.47131        6.03693
H          6.67554        1.88396        4.28946
H          8.64417        2.80322        2.86190
H         10.78365        3.66719        2.03583
H          6.06133        0.58376        9.61373
H          4.50061        2.42790        7.71645
H          4.75629        1.45314       11.50950
H         -2.65956        0.69658       10.58382
H         -3.10681        1.29162        8.05838
H         -3.72172        1.96531        3.02949
H          1.59259        2.45743        1.41003
H         -1.73055        3.63208       -1.00351
H         -3.31619        2.87555        0.73991
H          1.22046        1.43808        3.62191
