103

C         -4.61638       -8.69611       -1.41147
C         -5.47928       -8.99038       -2.47634
C         -6.63612       -8.23267       -2.70182
C         -6.93166       -7.13766       -1.89372
C         -6.03618       -6.80300       -0.88770
C         -4.89351       -7.59986       -0.60521
C         -4.22148       -7.03845        0.62520
C         -2.93516       -7.21643        1.00142
C         -2.02842       -8.03118        0.26331
N         -1.28796       -8.68729       -0.34124
C         -2.37511       -6.51404        2.10799
N         -1.94459       -5.94238        3.01949
C         -5.20505       -6.06573        1.19734
C         -6.01253       -5.64217        0.03537
C         -6.20279       -4.36190       -0.36110
C         -5.67277       -3.28401        0.40657
N         -5.16500       -2.44816        1.03155
C         -6.68536       -4.03859       -1.66532
N         -7.04179       -3.79784       -2.73857
C         -5.46219       -5.82495        2.49946
C         -6.67275       -5.10321        3.00054
N         -7.85622       -5.11322        2.43116
C         -8.62985       -4.38354        3.28580
C         -7.84443       -3.92540        4.40053
C         -8.69160       -3.11119        5.30615
O         -8.39690       -2.53946        6.33211
C        -10.00221       -3.15692        4.62064
C         -9.88002       -3.94529        3.41806
N        -11.07513       -3.98221        2.77326
C        -11.84489       -3.26063        3.54309
C        -11.23311       -2.68292        4.75863
C         -6.59125       -4.34218        4.28992
C         -5.45952       -4.09899        5.11782
C         -4.98282       -2.86475        5.35927
C         -3.77832       -2.52845        6.15779
C         -2.96350       -1.41774        5.87185
C         -1.76185       -1.11223        6.62596
N         -0.95499       -0.14114        6.13310
C         -1.25471        0.46999        4.95018
C         -2.44013        0.23606        4.30313
N         -3.31377       -0.67938        4.78838
C         -2.83040        0.91663        3.08559
N         -3.12460        1.48738        2.11761
C         -0.21432        1.27815        4.37174
N          0.60462        1.90562        3.84963
C         -1.39655       -1.83469        7.80883
C         -2.13178       -3.02409        8.03866
C         -3.33358       -3.37723        7.20453
N         -3.88387       -4.54687        7.57271
S         -2.94322       -5.20438        8.74840
N         -1.85425       -3.98329        8.93454
C         -0.22710       -1.45817        8.67941
N          0.82735       -0.83647        8.18002
C          1.65177       -0.62567        9.24603
C          1.03737       -1.11736       10.44281
C          1.94386       -0.89664       11.59749
O          1.77272       -1.16316       12.76810
C          3.13016       -0.30316       10.94371
C          2.87040       -0.17498        9.52914
N          3.97610        0.32156        8.91013
C          4.82108        0.47361        9.89199
C          4.35258        0.11017       11.24690
C         -0.12242       -1.71177       10.18638
C         -0.91188       -2.44830       11.13692
C         -0.42420       -3.51582       11.80198
C         -1.23163       -4.41127       12.61332
C         -1.11234       -4.70357       13.92549
C         -1.99700       -5.59490       14.73947
C         -2.70091       -6.67126       14.30755
C         -2.66661       -7.11991       12.95441
N         -2.66027       -7.47245       11.84841
C         -3.52141       -7.46719       15.16030
N         -4.19610       -8.12396       15.83322
C         -1.87227       -5.09688       16.16102
C         -0.96709       -3.99688       16.19392
C         -0.74407       -3.28511       17.36782
C         -1.31350       -3.75061       18.55212
C         -2.11247       -4.89670       18.55079
C         -2.41561       -5.55823       17.35594
C         -0.26339       -3.95039       14.87591
C          1.08342       -3.82862       14.81748
C          1.84079       -3.02541       15.71345
N          2.45273       -2.35949       16.44363
C          1.82669       -4.76187       14.02469
N          2.38959       -5.60421       13.47450
H         -3.75911       -9.34221       -1.25837
H         -5.25598       -9.82784       -3.13559
H         -7.30392       -8.49358       -3.52086
H         -7.83872       -6.56699       -2.07135
H         -4.84333       -6.24589        3.28553
H        -12.90805       -3.06115        3.33909
H        -11.67512       -2.05397        5.50569
H         -4.99637       -4.99295        5.52233
H         -5.47907       -2.01066        4.89340
H          5.85235        0.83710        9.76869
H          4.88572        0.14525       12.17680
H         -1.93615       -2.12392       11.28786
H          0.59337       -3.86084       11.60791
H         -2.00431       -4.87834       12.00854
H         -0.11066       -2.40437       17.40461
H         -1.10400       -3.24024       19.49031
H         -2.50314       -5.28086       19.49182
H         -3.04381       -6.43758       17.42683
