84

C         -1.69335       -1.09321        4.57150
C         -2.33584        0.01191        4.12811
C         -2.43978        1.19573        4.91624
N         -2.52273        2.13919        5.58418
C         -3.04761        0.02368        2.89118
N         -3.61893        0.00940        1.88203
C         -1.05208       -1.26030        5.90967
C         -1.04770       -2.63019        6.21659
C         -0.47985       -3.16066        7.36228
C          0.14498       -2.27577        8.23941
C          0.16615       -0.89311        7.95820
C         -0.43426       -0.38102        6.79045
Cl         0.95028        0.23607        9.01089
Cl         0.91986       -2.94931        9.63023
C         -1.61265       -3.40312        5.10117
O         -1.97468       -4.55867        5.14421
C         -1.68752       -2.43777        3.95272
C         -1.53619       -2.79793        2.66511
C         -1.28564       -4.12862        2.18197
C         -2.13787       -4.91794        1.25081
N         -1.76149       -6.14047        0.99930
C         -0.62460       -6.25851        1.73033
C         -0.30731       -5.01409        2.39253
C          0.98338       -5.18412        3.13614
S          1.94753       -4.00151        3.79680
C          1.21834       -6.66091        3.00970
C          0.23432       -7.20248        2.09390
N          0.39023       -8.54286        1.93887
C          1.38241       -8.80815        2.74158
C          1.96552       -7.65912        3.47484
C          2.92392       -7.66705        4.50531
O          2.85471       -6.79504        5.56759
C          3.87458       -7.01694        6.45410
C          4.60936       -8.08024        5.96337
C          4.02255       -8.49573        4.73116
C          4.49453       -9.53605        3.83761
O          4.35307       -9.50150        2.62546
O          5.08749      -10.58317        4.46186
C          4.06715       -6.19124        7.59375
C          4.86905       -6.52533        8.61633
C          5.15032       -5.65650        9.71801
C          5.32064       -6.06592       11.13827
N          5.60779       -5.12457       11.99238
C          5.67061       -4.01639       11.20854
C          5.41892       -4.35369        9.82154
C          5.55392       -3.11431        8.99035
S          5.50418       -2.90656        7.34356
C          5.81156       -2.08170       10.03258
C          5.88508       -2.71103       11.32858
N          6.13666       -1.78639       12.29143
C          6.20884       -0.67495       11.61097
C          5.99541       -0.77171       10.14183
C          5.95833        0.28348        9.17505
C          6.96081        1.11892        8.86145
C          7.00409        2.29397        7.95694
C          6.21375        2.54801        6.88284
C          6.43561        3.65017        6.00495
N          6.62084        4.54153        5.29471
C          5.11929        1.71480        6.50936
N          4.20905        1.05855        6.21300
C          8.21077        3.08393        8.36017
C          8.97794        2.30854        9.24150
C          8.29740        1.04695        9.54388
O          8.74566        0.16077       10.23873
C         10.16755        2.73431        9.81349
C         10.60347        4.02275        9.51431
C          9.83855        4.84551        8.66506
C          8.64085        4.37740        8.08880
Cl        10.30498        6.47202        8.30714
Cl        12.07020        4.56088       10.24881
H         -0.48610       -4.23287        7.53373
H         -0.36458        0.68441        6.58968
H         -1.52034       -2.04414        1.88141
H         -3.03452       -4.45937        0.81010
H          1.76679       -9.82431        2.91119
H          5.51698       -8.46583        6.40776
H          5.01771      -10.54519        5.43297
H          3.54241       -5.23936        7.58003
H          5.35023       -7.49916        8.65786
H          5.19769       -7.12475       11.41361
H          6.40072        0.30952       12.06357
H          4.98415        0.36750        8.70084
H         10.71688        2.08793       10.49286
H          8.07136        5.06171        7.46771
