122

C          4.47816       -2.01827       -0.87380
C          5.22440       -1.33371        0.02796
C          5.99586       -0.18911       -0.32138
N          6.61628        0.74550       -0.61380
C          5.34849       -1.72454        1.39536
N          5.43905       -2.02910        2.50713
C          4.40586       -1.71562       -2.33794
C          3.91295       -2.84516       -2.99708
C          3.80318       -2.95703       -4.37592
C          4.13878       -1.84572       -5.14170
C          4.53762       -0.65404       -4.50791
C          4.67385       -0.58907       -3.10595
Cl         4.85459        0.79061       -5.40278
Cl         4.00840       -1.98883       -6.85672
C          3.42428       -3.82909       -2.03361
O          2.81697       -4.82328       -2.36668
C          3.72121       -3.28163       -0.66446
C          3.25148       -3.82345        0.47215
C          2.36083       -4.98070        0.63092
C          2.98182       -6.35030        0.72111
C          3.12468       -7.14361       -0.42724
C          3.70912       -8.41643       -0.38417
C          4.10942       -8.95835        0.83624
C          4.01164       -8.17190        1.99015
C          3.47711       -6.87038        1.92788
C          4.66775      -10.33416        0.93891
O          5.46109      -10.66610        1.80252
O          4.18897      -11.19566        0.01419
C          1.00897       -4.77232        0.73726
C          0.42370       -3.39356        0.56613
C          0.01783       -2.95241       -0.70423
C         -0.70219       -1.75942       -0.85193
C         -1.00102       -0.96969        0.26610
C         -0.59199       -1.39747        1.53478
C          0.11302       -2.60222        1.68197
C         -1.81639        0.25874        0.06562
O         -2.59790        0.37911       -0.86259
O         -1.59417        1.23579        0.96827
C          0.03776       -5.84900        1.03428
C         -1.00545       -6.07563        0.20605
C         -1.94406       -7.13250        0.46411
C         -1.61746       -8.22514        1.38346
C         -0.70383       -8.11990        2.34745
S          0.18866       -6.64541        2.60821
C         -2.58279       -9.22399        1.17625
C         -3.54443       -8.75592        0.31084
C         -4.50267       -9.73041       -0.01414
C         -4.22845      -10.90941        0.66977
S         -2.81841      -10.79668        1.67579
C         -3.16747       -7.41032       -0.07056
C         -3.95774       -6.48265       -0.84435
C         -5.18873       -6.07065       -0.48252
C         -6.02165       -5.12151       -1.25352
C         -6.37957       -5.57597       -2.63763
C         -5.40820       -5.58903       -3.65093
C         -5.62061       -6.29048       -4.84322
C         -6.84116       -6.93545       -5.06744
C         -7.83404       -6.88993       -4.07946
C         -7.60207       -6.22279       -2.86925
C         -7.09767       -7.74401       -6.28973
O         -7.88305       -8.67611       -6.30919
O         -6.41154       -7.34081       -7.37898
C         -6.53948       -3.97452       -0.70060
C         -6.17556       -3.64049        0.71836
C         -5.01935       -2.90804        1.02383
C         -4.67147       -2.64332        2.36026
C         -5.48826       -3.07786        3.40752
C         -6.65709       -3.77976        3.11900
C         -6.96457       -4.09378        1.78805
C         -5.13425       -2.82644        4.83068
O         -5.89244       -2.79367        5.76937
O         -3.79952       -2.70937        4.99023
C         -7.37228       -3.05060       -1.51681
C         -8.63710       -2.63384       -1.31579
C         -9.58032       -2.04644       -2.29435
C         -9.38848       -0.96291       -3.08813
C        -10.46608       -0.35368       -3.82173
N        -11.35493        0.13198       -4.38866
C         -8.13275       -0.30925       -3.15908
N         -7.09983        0.20871       -3.23863
C        -10.89334       -2.72313       -2.04565
C        -10.82390       -3.31646       -0.77888
C         -9.51981       -3.04594       -0.17669
O         -9.33784       -2.99308        1.01693
C        -11.82262       -4.09396       -0.22548
C        -12.95522       -4.31676       -1.00109
C        -13.06650       -3.72969       -2.28081
C        -12.03386       -2.93087       -2.80865
Cl       -14.45212       -3.99044       -3.28114
Cl       -14.16241       -5.36855       -0.35468
H          3.44772       -3.87838       -4.82938
H          4.96217        0.35931       -2.66338
H          3.44085       -3.36654        1.43938
H          2.78843       -6.78486       -1.39265
H          3.85573       -8.95100       -1.31913
H          4.34827       -8.57304        2.94587
H          3.42087       -6.28777        2.84552
H          3.42160      -10.87970       -0.49663
H          0.20886       -3.56779       -1.58227
H         -1.06071       -1.46633       -1.83888
H         -0.86768       -0.84723        2.43073
H          0.36876       -2.94260        2.68412
H         -0.86953        1.08822        1.60088
H         -1.10763       -5.54540       -0.73438
H         -0.56902       -8.90935        3.07787
H         -5.31983       -9.62109       -0.71509
H         -4.76648      -11.84655        0.62775
H         -3.45609       -6.05313       -1.70417
H         -5.65213       -6.47092        0.41865
H         -4.43954       -5.12229       -3.48719
H         -4.79434       -6.37835       -5.54396
H         -8.77279       -7.42289       -4.22882
H         -8.35644       -6.27163       -2.08668
H         -5.95685       -6.48370       -7.30082
H         -4.36482       -2.55046        0.23300
H         -3.76229       -2.08954        2.57846
H         -7.32975       -4.09583        3.91427
H         -7.86314       -4.67518        1.59627
H         -3.69024       -2.62688        5.96135
H         -6.89958       -2.81236       -2.47646
H        -11.69450       -4.54104        0.75627
H        -12.13903       -2.52026       -3.80812
