84

C          5.47005        5.25060        5.97960
C          4.81215        6.33483        6.54638
F          4.86599        6.51468        7.87235
C          4.08595        7.22258        5.76435
C          4.02937        7.04030        4.38125
C          4.67512        5.94915        3.77889
C          5.39154        5.02702        4.59992
C          5.97768        3.88117        4.03734
C          5.80826        3.63017        2.68575
C          5.18539        4.59467        1.87787
C          4.61394        5.74620        2.39220
C          5.26808        4.20054        0.45466
O          4.84626        4.82473       -0.49512
C          6.06005        2.92448        0.44561
C          6.10462        2.45236        1.83546
C          6.06513        1.16363        2.25798
C          5.92840        0.07452        1.34655
N          5.77951       -0.81931        0.62333
C          6.05305        0.80347        3.63433
N          6.07448        0.52302        4.76125
C          6.74237        2.59241       -0.66356
C          7.82657        1.66117       -0.68489
C          8.74842        1.37345        0.30729
C          9.68482        0.38604       -0.10155
C          9.53134        0.00629       -1.39843
S          8.15743        0.78439       -2.13699
C         10.54617       -0.90090       -1.82931
C         11.43550       -1.18485       -0.80853
S         11.01087       -0.42042        0.67344
C         12.62319       -2.01009       -0.88015
C         13.18206       -2.74445        0.14841
C         14.37271       -3.40444       -0.26982
C         14.68373       -3.16932       -1.57472
S         13.52257       -2.12629       -2.34300
C         15.87574       -3.83081       -1.99090
C         16.43383       -4.56370       -0.95982
S         15.53114       -4.44520        0.50101
C         17.62989       -5.37938       -1.01828
C         18.47919       -5.69273        0.02763
C         19.53592       -6.55176       -0.39678
C         19.48634       -6.82806       -1.72778
S         18.12199       -6.08958       -2.50659
C         20.56624       -7.64047       -2.17060
C         21.36904       -8.05117       -1.12099
S         20.89513       -7.32363        0.37296
C         22.51994       -8.89721       -1.13656
C         22.70284       -9.90391       -2.00419
C         24.10332      -10.39746       -2.22489
O         25.05491      -10.30779       -1.47886
C         24.10938      -10.93108       -3.60257
C         25.21272      -11.36947       -4.31474
C         25.02480      -11.75752       -5.64841
C         23.73459      -11.63667       -6.24686
C         23.56535      -11.99942       -7.58893
C         24.63795      -12.50238       -8.31553
C         25.89235      -12.64507       -7.73863
C         26.08938      -12.26436       -6.41031
F         24.45389      -12.86443       -9.59165
C         22.63986      -11.17845       -5.49199
C         22.81814      -10.87651       -4.15087
C         21.87886      -10.48835       -3.06867
C         20.58472      -10.88367       -2.97519
C         19.84931      -10.78858       -1.75946
N         19.24319      -10.74684       -0.76862
C         19.89150      -11.50881       -4.05120
N         19.33313      -11.99459       -4.94242
H          6.01481        4.57483        6.63387
H          3.56439        8.04877        6.23725
H          3.45586        7.74474        3.78188
H          6.52431        3.19581        4.67894
H          4.11583        6.44951        1.73027
H          6.53721        3.13113       -1.58948
H          8.77665        1.83268        1.28604
H         10.61694       -1.29544       -2.83534
H         12.77732       -2.81480        1.15047
H         16.28299       -3.76084       -2.99201
H         18.36297       -5.33810        1.04424
H         20.70857       -7.91170       -3.20812
H         23.33319       -8.63160       -0.45919
H         26.18871      -11.40521       -3.83820
H         22.60056      -11.91367       -8.08203
H         26.70881      -13.05311       -8.32623
H         27.07909      -12.37961       -5.97245
H         21.67124      -11.07845       -5.97374
