92

C         -1.54869        1.37490        0.11857
C         -2.91994        1.05257        0.11221
C         -3.82926        1.98890       -0.37381
C         -3.41947        3.24197       -0.85572
C         -2.05410        3.54136       -0.83650
C         -1.12761        2.62092       -0.35631
S         -5.41366        1.33704       -0.26007
C         -4.78880       -0.11717        0.44430
N         -3.47790       -0.13226        0.55475
C         -5.67363       -1.12558        0.85591
C         -7.01629       -1.44873        0.32694
N         -7.65799       -2.41166        0.92716
C         -6.78257       -2.79923        1.89220
C         -5.55711       -2.02894        1.83068
C         -4.63088       -2.51928        2.91098
S         -3.07382       -2.06400        3.26083
C         -5.46021       -3.57406        3.58898
C         -6.72544       -3.67404        2.89143
N         -7.50991       -4.63379        3.44140
C         -6.76485       -5.08850        4.40906
C         -5.42445       -4.46199        4.58469
C         -4.45927       -4.84313        5.59120
C         -4.05282       -6.14474        5.64346
C         -3.08651       -6.58835        6.63976
C         -2.51635       -7.80654        6.88255
C         -2.74721       -9.16225        6.20545
C         -1.47073       -9.76359        5.53467
N         -1.69901      -11.04736        4.84914
C         -3.36342      -10.21349        7.17277
N         -4.69193       -9.87308        7.66764
C         -1.64476       -7.57455        8.04531
C         -0.81824       -8.38989        8.72096
C         -0.03034       -7.92900        9.94249
C         -0.22342       -6.46125       10.29221
C         -1.04078       -5.64140        9.60877
C         -1.75729       -6.18170        8.48241
C         -2.60877       -5.59341        7.63069
C         -3.07339       -4.22734        7.57015
C         -3.93830       -3.88105        6.59535
C         -0.34418       -8.79287       11.14389
C         -1.57221       -8.96198       11.66209
C         -1.86528       -9.78502       12.79041
C         -0.97061      -10.13135       13.92706
N         -1.46723      -10.89483       14.85597
C         -2.73519      -11.11993       14.41523
C         -2.96860      -10.42878       13.16380
C         -4.36679      -10.71609       12.70597
S         -5.15458      -10.18125       11.34713
C         -4.86448      -11.62706       13.78301
C         -3.80917      -11.79674       14.76701
N         -4.21936      -12.62801       15.76834
C         -5.43129      -12.94729       15.40339
C         -5.91959      -12.34126       14.14825
C         -7.15843      -12.54207       13.52695
N         -7.45964      -13.51034       12.68506
C         -8.78912      -13.42460       12.29181
C         -9.45232      -14.28779       11.39337
C        -10.80497      -14.08159       11.09445
C        -11.50246      -13.02979       11.67894
C        -10.86842      -12.16104       12.57252
C         -9.51008      -12.37706       12.86438
S         -8.47173      -11.49148       13.91096
H         -0.83160        0.65337        0.49814
H         -4.14211        3.96096       -1.22903
H         -1.71411        4.50846       -1.20032
H         -0.06890        2.86916       -0.34712
H         -7.41655       -0.89665       -0.53751
H         -7.07496       -5.89654        5.08849
H         -4.42589       -6.88333        4.94281
H         -3.47065       -9.00816        5.39302
H         -0.67731       -9.91942        6.27123
H         -1.08089       -9.06224        4.78863
H         -2.13842      -11.72702        5.46772
H         -0.80817      -11.47195        4.59366
H         -2.69236      -10.40444        8.01676
H         -3.49010      -11.17545        6.67097
H         -4.65444       -8.98696        8.16775
H         -4.96448      -10.56870        8.36576
H         -0.67834       -9.42251        8.42787
H          1.03301       -8.06441        9.70332
H          0.33276       -6.07329       11.14168
H         -1.16207       -4.60178        9.88907
H         -2.71942       -3.50246        8.29537
H         -4.28756       -2.85142        6.54385
H          0.51140       -9.30836       11.57469
H         -2.41871       -8.45893       11.19560
H          0.05679       -9.73434       13.95029
H         -6.08794      -13.62035       15.97714
H         -8.90873      -15.10859       10.93554
H        -11.31187      -14.74803       10.39948
H        -12.55336      -12.87868       11.43811
H        -11.41465      -11.33979       13.02698
