113

C         -5.11112       -0.90263       -4.39531
C         -5.56186        0.39759       -4.59912
C         -6.88697        0.61849       -5.04383
C         -7.32716        1.97361       -5.23424
N         -7.66839        3.07228       -5.37478
C         -7.75872       -0.46712       -5.27654
C         -9.11063       -0.26874       -5.71738
N        -10.20660       -0.13175       -6.06921
C         -7.31620       -1.77374       -5.05110
C         -6.01403       -1.95352       -4.60643
C         -5.41827       -3.23890       -4.22305
O         -5.94677       -4.31466       -4.39957
C         -4.09014       -2.90507       -3.60078
C         -3.81381       -1.48659       -3.93568
C         -2.59929       -0.88527       -3.99510
C         -2.42823        0.45274       -4.44997
N         -2.30790        1.54226       -4.82585
C         -1.38717       -1.56744       -3.68387
N         -0.40423       -2.12862       -3.42840
C         -3.43068       -3.72662       -2.76689
C         -3.87992       -5.03687       -2.45477
S         -4.87228       -5.29844       -1.08096
C         -4.92720       -6.99432       -1.33357
C         -4.21961       -7.34521       -2.46769
C         -3.60471       -6.22536       -3.10003
C         -5.62430       -7.86797       -0.42066
C         -6.73957       -7.58329        0.34277
C         -7.15011       -8.68623        1.14768
C         -6.32918       -9.78742        0.99955
S         -5.08554       -9.47011       -0.13633
C         -6.42748      -11.05995        1.67307
S         -7.93485      -11.68135        2.20329
C         -7.22042      -13.07885        2.90264
C         -5.85443      -13.08155        2.68787
C         -5.40170      -11.93143        1.98184
C         -8.05020      -14.02316        3.57168
C         -7.56957      -14.76161        4.58597
C         -8.30209      -15.78157        5.36797
C         -7.99641      -16.03686        6.71648
C         -8.64294      -17.07915        7.48198
N         -8.26718      -17.24899        8.77381
C         -7.31830      -16.43373        9.31601
C         -6.72275      -15.44001        8.58476
N         -7.05477      -15.24665        7.28622
C         -5.73748      -14.54774        9.12220
N         -4.94305      -13.83113        9.57498
C         -6.99287      -16.68172       10.68737
N         -6.71722      -16.86767       11.79927
C         -9.64464      -17.92387        6.92415
C        -10.00274      -17.66031        5.56095
C         -9.30413      -16.58780        4.76868
N         -9.72487      -16.52928        3.49265
S        -10.91167      -17.65483        3.30349
N        -10.95497      -18.26701        4.82987
C        -10.31419      -19.02740        7.67709
S        -10.83359      -20.46223        6.87434
C        -11.49885      -21.18065        8.27869
C        -11.25980      -20.37532        9.37400
C        -10.57863      -19.15781        9.03303
C        -12.20388      -22.44936        8.23480
C        -13.19411      -22.90160        9.08901
C        -13.72647      -24.17581        8.69968
C        -13.13580      -24.67527        7.55343
S        -11.87426      -23.63466        7.03666
C        -13.46967      -25.89428        6.84292
S        -13.24921      -26.04835        5.14862
C        -13.88917      -27.64787        5.09330
C        -14.25505      -28.05225        6.36254
C        -14.03083      -27.04719        7.35755
C        -14.01387      -28.25480        3.81370
C        -13.94560      -29.55516        3.50083
C        -13.68544      -30.71888        4.32468
C        -13.66851      -31.98694        3.88155
C        -13.86601      -33.11484        4.85258
O        -13.56944      -33.16278        6.02569
C        -14.67883      -34.10439        4.10799
C        -15.40066      -35.14604        4.67469
C        -16.41478      -35.72771        3.90440
C        -16.68921      -35.22407        2.60893
C        -15.86998      -34.22677        2.02359
C        -14.83787      -33.68293        2.77278
C        -13.91635      -32.53729        2.54756
C        -13.23413      -32.21114        1.42045
C        -12.16763      -31.24991        1.42542
N        -11.31368      -30.47417        1.41721
C        -13.46630      -32.85325        0.17384
N        -13.65783      -33.35730       -0.85278
C        -17.88366      -35.62008        1.91291
N        -18.87672      -35.87568        1.37276
C        -17.20158      -36.78771        4.48144
N        -17.80568      -37.65612        4.95096
H         -4.93218        1.26306       -4.40479
H         -7.96928       -2.63349       -5.19250
H         -2.53697       -3.41489       -2.23639
H         -4.13464       -8.36192       -2.83272
H         -2.99492       -6.29485       -3.99260
H         -7.25051       -6.62835        0.32853
H         -8.00155       -8.65604        1.81700
H         -5.19780      -13.87581        3.02140
H         -4.36230      -11.75193        1.73484
H         -9.08403      -14.10545        3.24643
H         -6.54719      -14.59534        4.92379
H        -11.54938      -20.63733       10.38474
H        -10.30889      -18.41369        9.77269
H        -13.56334      -22.33407        9.93500
H        -14.53765      -24.67109        9.22047
H        -14.70796      -29.01029        6.58324
H        -14.27834      -27.17998        8.40328
H        -14.18038      -27.57222        2.97788
H        -14.12896      -29.74744        2.44530
H        -13.58881      -30.55843        5.39556
H        -15.23208      -35.43589        5.71075
H        -16.11892      -33.83205        1.03979
