127

C          1.42769       -4.63558       -6.05544
C          2.68631       -4.80977       -6.62052
C          3.69184       -5.48333       -5.88763
C          4.97816       -5.65891       -6.49727
N          6.01473       -5.79821       -7.00920
C          3.42465       -5.98798       -4.59417
C          4.41170       -6.72109       -3.85249
N          5.18651       -7.33008       -3.24195
C          2.15895       -5.81236       -4.02419
C          1.19580       -5.15105       -4.77113
C         -0.21465       -4.97941       -4.39073
O         -0.66032       -5.13856       -3.27624
C         -0.90933       -4.54568       -5.64740
C          0.14905       -4.04640       -6.55318
C          0.01251       -3.09939       -7.51323
C          1.12723       -2.57058       -8.22270
N          2.05443       -2.15232       -8.78043
C         -1.24550       -2.50125       -7.81763
N         -2.27266       -2.02257       -8.06444
C         -2.19876       -4.80877       -5.91539
C         -3.13755       -5.49181       -5.01618
C         -3.24466       -6.88937       -5.06217
C         -4.18019       -7.52227       -4.25122
C         -4.99198       -6.76978       -3.37535
C         -4.87275       -5.38967       -3.30682
C         -3.94563       -4.75116       -4.13748
C         -5.86326       -7.66108       -2.64523
C         -5.61758       -8.98604       -3.04623
C         -4.47379       -9.02391       -4.08791
C         -5.00589       -9.67168       -5.40020
C         -4.01600       -9.80263       -6.55674
C         -3.24829       -9.79341       -3.52281
C         -2.62739       -9.21722       -2.24927
C         -6.35500      -10.04110       -2.51136
C         -7.34845       -9.78663       -1.53933
C         -7.54792       -8.44873       -1.13126
C         -6.82068       -7.38683       -1.68496
C         -8.16706      -10.88691       -0.96258
S         -7.45596      -12.44392       -0.77673
C         -8.87826      -13.14678       -0.13488
C         -9.89876      -12.21460       -0.02012
C         -9.47602      -10.91410       -0.49725
C        -10.35660       -9.77473       -0.48773
N        -11.07795       -8.86815       -0.43816
C        -11.27505      -12.45468        0.52110
F        -11.51388      -13.74126        0.87428
F        -11.50347      -11.69807        1.62478
F        -12.22428      -12.11965       -0.38966
C         -8.85257      -14.53381        0.18346
C         -8.42400      -14.93634        1.38934
C         -8.42682      -16.34911        1.77130
C         -9.57118      -16.87767        2.37445
C         -9.57151      -18.22178        2.71513
C         -8.45643      -19.04658        2.44994
C         -7.31466      -18.52322        1.87263
C         -7.30230      -17.16384        1.53055
C         -8.74825      -20.39538        2.88263
C        -10.02572      -20.41740        3.47383
C        -10.69775      -19.04430        3.34149
C        -11.16616      -18.49345        4.71451
C        -10.06353      -18.25456        5.74345
C        -11.92099      -19.11666        2.37520
C        -11.61118      -19.50083        0.92544
C        -10.51349      -21.57274        4.06522
C         -9.77837      -22.76468        3.94999
C         -8.52054      -22.74069        3.31819
C         -7.99433      -21.55315        2.79429
C        -10.25217      -24.02879        4.54061
C        -11.52416      -24.44234        4.64241
C        -11.85836      -25.48970        5.66100
O        -11.14274      -26.35015        6.12392
C        -13.23856      -25.17449        6.08404
C        -13.92311      -25.73911        7.14846
C        -15.16764      -25.19061        7.48695
C        -15.67003      -24.07502        6.78110
C        -14.95637      -23.53275        5.69282
C        -13.75442      -24.11458        5.31749
C        -12.79121      -23.84175        4.22092
C        -13.09230      -23.36969        2.98723
C        -12.17614      -23.44680        1.89567
N        -11.46264      -23.53612        0.98556
C        -14.37573      -22.83923        2.67444
N        -15.42271      -22.38822        2.46643
C        -16.90842      -23.45129        7.15833
N        -17.89601      -22.92133        7.45311
C        -15.90337      -25.77922        8.56975
N        -16.48836      -26.27777        9.43693
H          2.91743       -4.46839       -7.62779
H          1.91090       -6.20937       -3.04142
H         -2.63458       -4.60579       -6.89028
H         -2.60177       -7.46352       -5.71875
H         -5.48122       -4.80781       -2.62270
H         -3.85633       -3.66843       -4.09076
H         -5.87823       -9.11289       -5.76524
H         -5.36838      -10.68483       -5.17986
H         -3.70493       -8.83067       -6.94316
H         -4.48802      -10.32942       -7.39269
H         -3.12626      -10.37291       -6.27696
H         -2.44988       -9.82721       -4.27241
H         -3.53069      -10.83534       -3.32151
H         -2.26114       -8.19789       -2.40505
H         -1.76841       -9.82646       -1.94918
H         -3.33557       -9.21009       -1.41601
H         -6.15411      -11.05071       -2.85793
H         -8.27327       -8.19441       -0.36191
H         -7.01273       -6.37034       -1.35619
H         -9.18582      -15.24708       -0.56707
H         -8.08872      -14.24079        2.15401
H        -10.44338      -16.25898        2.55892
H         -6.44439      -19.14449        1.68796
H         -6.40761      -16.74666        1.07540
H        -11.89772      -19.18493        5.15355
H        -11.69845      -17.54355        4.57227
H         -9.37955      -19.10344        5.82605
H        -10.50708      -18.08935        6.73113
H         -9.48114      -17.36224        5.49365
H        -12.42334      -18.14005        2.34952
H        -12.65794      -19.83007        2.76632
H        -11.01749      -18.72923        0.42444
H        -12.54207      -19.60622        0.35865
H        -11.07208      -20.44919        0.85696
H        -11.45223      -21.52899        4.60536
H         -7.93322      -23.65315        3.22761
H         -7.02014      -21.55331        2.31782
H         -9.46790      -24.61623        5.02053
H        -13.48634      -26.56688        7.70422
H        -15.35277      -22.65653        5.18334
