88

C         -3.56029       -7.79660       -4.02797
C         -4.65631       -7.52342       -3.18762
F         -5.88592       -7.87077       -3.59264
C         -4.49854       -6.90212       -1.94234
F         -5.55746       -6.67608       -1.15522
C         -3.24721       -6.51528       -1.51054
C         -2.18942       -6.78786       -2.36217
C         -2.29045       -7.42492       -3.60992
C         -0.90357       -7.54627       -4.17762
C         -0.57794       -7.75787       -5.47784
C         -1.56440       -7.96256       -6.48396
N         -2.37954       -8.11670       -7.29379
C          0.77652       -7.70721       -5.93341
N          1.88516       -7.66440       -6.30824
C          0.02916       -7.17614       -3.07624
C         -0.81042       -6.42636       -2.09466
O         -0.49369       -5.55360       -1.31501
C          1.28894       -7.58425       -2.83777
C          2.06886       -7.33385       -1.66159
O          2.88382       -8.32552       -1.13723
C          3.58291       -7.86334       -0.03550
C          3.20772       -6.54084        0.16517
C          2.31584       -6.21752       -0.87925
O          1.84793       -4.96793       -1.06206
C          3.66625       -5.64299        1.20956
O          4.09681       -6.00698        2.29459
O          3.57641       -4.32461        0.88480
C          4.54721       -8.63549        0.67620
C          4.91577       -9.85846        0.26994
C          5.94281      -10.53088        0.96959
N          5.59072      -11.32169        2.03782
C          6.74169      -11.82856        2.57521
C          7.21904      -12.64265        3.62764
C          8.59650      -12.65378        3.47435
N          8.94016      -11.89834        2.37519
C          7.79171      -11.38623        1.84120
C          7.31687      -10.55537        0.80101
C          9.65040      -13.25569        4.19808
C          9.52139      -13.52221        5.50615
C         10.59490      -14.11283        6.22139
O         11.78838      -14.45804        5.64258
C         12.64791      -14.98907        6.57682
C         11.99222      -14.96333        7.80669
C         10.69451      -14.44510        7.55716
O          9.70422      -14.24723        8.45004
C         12.49707      -15.36857        9.09216
O         11.78814      -15.69176       10.03524
O         13.83376      -15.26964        9.24901
C         13.94769      -15.45593        6.21500
C         14.36644      -15.36151        4.94363
C         15.68882      -15.75949        4.51208
C         16.15555      -15.71859        3.25542
C         17.63912      -15.73162        3.04829
O         18.49569      -16.15018        3.79575
C         17.85346      -15.03294        1.76820
C         16.61854      -14.70617        1.16722
C         16.61981      -13.94950        0.00417
C         17.85227      -13.58932       -0.55211
C         19.06236      -13.96273        0.04596
C         19.08005      -14.68683        1.23007
F         20.22363      -13.61259       -0.52328
F         17.86503      -12.87819       -1.68779
C         15.54363      -15.34849        1.97303
C         14.36319      -15.80277        1.48486
C         13.62377      -16.82008        2.15524
N         13.05277      -17.69611        2.66426
C         13.85839      -15.42251        0.20838
N         13.45143      -15.08895       -0.82351
H         -3.76615       -8.28809       -4.97257
H         -3.09839       -6.02912       -0.55164
H          1.77476       -8.26912       -3.52802
H          0.89779       -5.00291       -1.31793
H          3.14568       -4.21229        0.00675
H          5.02585       -8.18920        1.54707
H          4.49317      -10.32769       -0.61275
H          4.66696      -11.50334        2.40846
H          6.64815      -13.15362        4.39154
H          9.86295      -11.70145        2.01083
H          7.88892      -10.03127        0.04757
H         10.57611      -13.48797        3.67688
H          8.61846      -13.27606        6.05633
H          9.96693      -14.58378        9.32995
H         13.97423      -15.48823       10.19323
H         14.58591      -15.88396        6.97843
H         13.70581      -14.91285        4.20452
H         16.38772      -16.00634        5.31541
H         15.71803      -13.62427       -0.50311
H         20.01324      -14.95895        1.70902
