118

C          4.49959       -0.16300       -1.71660
C          3.12808       -0.28084       -1.77982
C          2.42318       -1.50581       -1.46666
N          1.07379       -1.47604       -1.55718
C          0.44180       -0.33227       -1.93964
C          1.14181        0.81230       -2.23139
N          2.49473        0.84073       -2.15243
C          0.50736        2.03467       -2.62809
N         -0.02642        3.01431       -2.94741
C         -0.98433       -0.40799       -2.02119
N         -2.14239       -0.45255       -2.09684
C          3.09709       -2.70604       -1.06673
C          4.52909       -2.59475       -1.00186
C          5.22265       -1.30183       -1.32888
N          6.55586       -1.34959       -1.21315
S          6.93220       -2.88828       -0.73946
N          5.41873       -3.55120       -0.67558
C          2.40455       -3.99630       -0.73448
C          2.91408       -4.90037        0.22557
C          2.24418       -6.09204        0.50266
C          1.05181       -6.42751       -0.16157
C          0.51190       -5.56797       -1.09006
C          1.19096       -4.37322       -1.37150
C          0.59588       -7.72274        0.28496
C          1.49576       -8.21644        1.24857
C          2.62365       -7.20625        1.48654
C          4.01134       -7.82482        1.15048
C          4.20964       -8.26708       -0.30153
C          2.60758       -6.71042        2.96142
C          1.32352       -6.01062        3.41432
C          1.30114       -9.45434        1.84141
C          0.20450      -10.22990        1.44010
C         -0.69379       -9.72445        0.47755
C         -0.50494       -8.46593       -0.10069
C         -0.00041      -11.56105        2.00916
N          1.05997      -12.34958        2.41667
C          0.56351      -13.52161        2.90048
C          0.95867      -14.75140        3.47236
C         -0.22489      -15.44098        3.67248
N         -1.28588      -14.65680        3.27868
C         -0.78355      -13.48893        2.79178
C         -1.18079      -12.26073        2.22377
C         -0.46933      -16.71665        4.22578
C         -1.52515      -17.45824        3.86061
C         -1.80371      -18.78552        4.40951
C         -2.47358      -19.70886        3.59731
C         -2.77975      -20.94918        4.13047
C         -2.43779      -21.27467        5.45994
C         -1.78268      -20.37025        6.26915
C         -1.47225      -19.11930        5.73953
C         -2.89921      -22.60770        5.75161
C         -3.53892      -23.13766        4.61990
C         -3.49838      -22.12572        3.46829
C         -4.92223      -21.72511        2.99085
C         -5.81598      -21.06878        4.04393
C         -2.68470      -22.68129        2.26526
C         -1.22343      -23.02994        2.55518
C         -4.08628      -24.41557        4.64067
C         -4.02662      -25.19998        5.81301
C         -3.36615      -24.62549        6.93175
C         -2.79712      -23.34716        6.90807
C         -4.62423      -26.56901        5.87561
C         -4.10322      -27.63647        6.67065
C         -4.70769      -28.94774        6.69820
N         -4.21115      -29.94738        7.44332
C         -3.10442      -29.69762        8.18936
C         -2.50492      -28.46158        8.18147
N         -2.99568      -27.44585        7.42665
C         -1.34073      -28.15812        8.95891
N         -0.40105      -27.92658        9.60154
C         -2.60373      -30.79602        8.95169
N         -2.17342      -31.68116        9.57464
C         -5.83047      -29.27867        5.96561
C         -6.39286      -28.27204        5.16614
C         -5.79732      -26.89622        5.11280
N         -6.50479      -26.09060        4.29861
S         -7.74628      -26.97195        3.65666
N         -7.47795      -28.42793        4.39477
H          5.00463        0.76785       -1.95195
H          3.83614       -4.70216        0.76317
H         -0.41495       -5.80526       -1.60162
H          0.73312       -3.73533       -2.12295
H          4.19323       -8.69530        1.79499
H          4.80249       -7.10090        1.38548
H          3.43381       -8.96487       -0.62943
H          5.17513       -8.77298       -0.40912
H          4.21664       -7.41109       -0.98354
H          3.44052       -6.01475        3.12468
H          2.78072       -7.55908        3.63715
H          1.15451       -5.08292        2.85927
H          1.39639       -5.74664        4.47474
H          0.44365       -6.65022        3.29674
H          1.98483       -9.80270        2.60810
H         -1.54501      -10.32082        0.15631
H         -1.20396       -8.09693       -0.84275
H          2.04699      -12.13510        2.37217
H          1.95769      -15.09752        3.69762
H         -2.27513      -14.86143        3.33106
H         -2.18686      -11.92636        2.01248
H          0.26452      -17.09464        4.93270
H         -2.22305      -17.11808        3.10057
H         -2.74796      -19.46744        2.57541
H         -1.52127      -20.61029        7.29339
H         -0.97759      -18.39850        6.38512
H         -5.44422      -22.61024        2.60505
H         -4.84204      -21.02636        2.14695
H         -5.93211      -21.69752        4.93096
H         -6.81364      -20.89321        3.62784
H         -5.42156      -20.09683        4.35676
H         -2.69331      -21.94876        1.44741
H         -3.17590      -23.58234        1.87499
H         -0.64932      -22.14733        2.85366
H         -0.75135      -23.43353        1.65348
H         -1.13225      -23.78486        3.34147
H         -4.55754      -24.77973        3.73333
H         -3.27474      -25.16756        7.86934
H         -2.29447      -22.95604        7.78634
H         -6.26320      -30.27183        5.99970
