68

C          3.75099       -1.04553       -8.22954
C          3.71463       -0.95431       -6.89283
C          3.82649        0.27354       -6.16036
S          3.94023        1.80584       -6.94950
C          4.08883        2.66385       -5.49091
S          4.30359        4.40569       -5.43923
C          5.86038        4.56438       -6.35018
C          3.99297        1.83233       -4.40081
C          3.85469        0.46369       -4.78165
C          3.77392       -0.61138       -3.83461
C          3.73591       -1.55859       -3.09952
C          3.70537       -2.74497       -2.32370
C          3.23224       -2.94635       -1.04821
C          3.41959       -4.32095       -0.74553
C          3.99849       -4.92683       -1.84622
C          4.37695       -6.28473       -2.08839
S          5.68912       -6.71553       -3.13420
C          5.49400       -8.39542       -2.85919
C          6.32793       -9.41213       -3.40064
C          7.02672      -10.30411       -3.79683
C          7.84746      -11.39036       -4.19961
C          9.11360      -11.34945       -4.73739
C          9.53704      -12.69101       -4.91927
C          8.51973      -13.52235       -4.48855
C          8.33940      -14.92421       -4.38269
C          9.29014      -15.78193       -4.78621
C          9.12585      -17.19243       -4.66018
C          8.37523      -17.93392       -3.76193
C          8.47527      -19.33991       -3.97606
C          9.30599      -19.64251       -5.02899
S          9.65952      -21.25494       -5.62331
C         11.13198      -21.62938       -4.64514
S          9.96871      -18.24141       -5.73765
N          7.48898      -12.70734       -4.07720
C          4.43547       -8.56132       -2.03409
C          3.81286       -9.70193       -1.47418
C          2.74467       -9.38896       -0.61491
C          1.96415      -10.31638        0.18870
O          1.04420      -10.04238        0.94923
O          2.48583      -11.56962        0.03734
C          2.11451      -12.48554        1.06290
S          2.38409       -7.67409       -0.47003
C          3.79048       -7.41343       -1.57622
N          4.18430       -3.94051       -2.78549
H          3.65984       -2.01098       -8.71678
H          3.86731       -0.18979       -8.88624
H          3.59579       -1.87366       -6.32397
H          6.14539        5.61836       -6.39598
H          5.76413        4.19360       -7.37460
H          6.65282        4.01000       -5.83964
H          4.03923        2.18306       -3.37672
H          2.79377       -2.19641       -0.40289
H          3.15486       -4.80519        0.18553
H          9.68506      -10.45728       -4.95913
H         10.49665      -13.00846       -5.30850
H          7.40636      -15.29890       -3.96813
H         10.21102      -15.41885       -5.23553
H          7.77798      -17.49103       -2.97435
H          7.95727      -20.08491       -3.38491
H         11.48452      -22.63289       -4.89791
H         10.90079      -21.60162       -3.57666
H         11.93165      -20.91571       -4.86109
H          6.60182      -13.02372       -3.71004
H          4.13303      -10.72200       -1.65275
H          2.67198      -13.41092        0.89454
H          1.04418      -12.70467        1.03111
H          2.40680      -12.08616        2.03931
H          4.59622       -4.08631       -3.69664
