83

C          3.01709       -1.03092       -1.15850
C          2.05138       -0.68893       -0.03115
C          2.41851        0.57392        0.70142
C          3.22659        0.52960        1.88523
C          3.43316        1.75678        2.47654
C          4.15759        2.09672        3.64748
C          4.33262        1.20822        4.63663
C          5.06969        1.55790        5.80058
C          5.19472        2.80716        6.41660
C          6.05397        2.70953        7.53272
N          6.63307        3.42749        8.53654
C          7.44664        2.61650        9.27346
C          8.34018        2.59671       10.36279
C          8.87466        1.31381       10.52205
C          9.84422        0.86614       11.46330
C         10.76944        1.71748       11.93103
C         11.71316        1.28750       12.89685
S         13.22488        0.66664       12.32531
C         13.80089        0.35215       13.90283
C         12.87760        0.71456       14.84802
C         13.12232        0.54527       16.21079
C         12.04907        0.99157       17.00748
C         10.85422        1.57013       16.47902
C         10.61294        1.74851       15.09492
C          9.42904        2.37411       14.61303
N          8.45762        2.91650       14.26692
C         11.67088        1.28456       14.28260
S          8.21499        0.14312        9.39374
C          7.33748        1.38982        8.72683
C          6.49406        1.44481        7.68242
S          5.96232        0.28625        6.61416
S          2.66400        2.98433        1.57894
C          2.05661        1.88216        0.39315
C          1.29682        2.46892       -0.65981
C          0.79918        1.77182       -1.68724
C          0.02718        2.37298       -2.71057
C         -0.33430        3.70952       -2.88080
C         -1.08563        3.85032       -4.06326
N         -1.72884        4.75922       -4.84730
C         -2.29024        4.12794       -5.91824
C         -3.09141        4.32528       -7.06584
C         -3.28499        3.11126       -7.73382
C         -4.08322        2.88163       -8.92701
S         -4.92248        1.37134       -9.11726
C         -5.59148        1.80658      -10.62259
C         -5.23089        3.08033      -10.98337
C         -5.64844        3.70768      -12.16598
C         -6.49597        3.08207      -13.12284
N         -7.18279        2.57067      -13.90415
C         -5.14517        5.01514      -12.31680
C         -4.28070        5.63252      -11.36639
C         -3.83695        5.00443      -10.18088
C         -4.35375        3.70749      -10.00784
S         -2.44873        1.76499       -6.96728
C         -1.95143        2.83146       -5.79803
C         -1.24498        2.66065       -4.67182
S         -0.58592        1.31035       -3.96849
H          2.70273       -1.95780       -1.64859
H          4.03375       -1.17415       -0.77825
H          3.06091       -0.24749       -1.92280
H          2.02650       -1.52266        0.67940
H          1.02420       -0.63434       -0.40181
H          3.63836       -0.38959        2.28384
H          4.57091        3.10003        3.71613
H          3.93059        0.20052        4.57270
H          4.70762        3.71134        6.07568
H          6.49712        4.41473        8.70163
H          8.59023        3.44788       10.98524
H          9.82131       -0.17460       11.78016
H         10.83034        2.74715       11.59043
H         14.78293       -0.07839       14.04252
H         14.02394        0.11838       16.63136
H         12.13688        0.89496       18.09080
H         10.09231        1.89327       17.19158
H          1.12973        3.54146       -0.60576
H          0.96122        0.71402       -1.79997
H         -0.06625        4.51464       -2.21115
H         -1.78159        5.74978       -4.65202
H         -3.51554        5.27651       -7.35208
H         -6.21664        1.09412      -11.14406
H         -5.41866        5.58734      -13.20566
H         -3.93588        6.64760      -11.57130
H         -3.15581        5.51202       -9.51181
