123

C          9.69643        5.34740       -3.73041
O          8.60458        4.76739       -3.02561
C          8.02888        3.61169       -3.66732
C          7.02525        2.95127       -2.69031
C          5.68643        3.64726       -2.65615
C          4.70635        3.41083       -1.71915
S          3.36247        4.42639       -1.93315
C          4.13461        5.32506       -3.20453
C          3.54711        6.59366       -3.50382
C          3.23594        7.12740       -4.69494
C          2.55943        8.46059       -4.85732
S          3.22916        9.35775       -6.28641
C          3.13630       11.03800       -5.76673
C          4.01359       12.02590       -6.15777
S          3.66357       13.53064       -5.40887
C          2.29478       12.87482       -4.61438
C          2.11177       11.54756       -4.93240
S          0.74000       10.59977       -4.41122
C          1.48365        8.99722       -4.07319
C          0.92972        8.33932       -2.86210
C          0.12905        8.83420       -1.89857
N         -0.05280        8.31611       -0.61693
C          0.87929        7.35609        0.04108
C          2.34505        7.83436       -0.07675
C          2.88742        8.59592        1.09330
C          2.12306        8.86682        2.26359
C          2.80390        9.70722        3.11753
S          4.41110        9.98474        2.59760
C          4.23055        9.00217        1.20967
C          5.23618        8.73259        0.24687
C          6.56675        8.71574        0.38134
C          7.35445        8.72226       -0.90828
O          6.97333        8.34419       -1.99699
C          8.63138        9.40115       -0.57814
C          8.62557        9.72269        0.79420
C          9.54921       10.60427        1.31076
C         10.58378       11.02876        0.47818
C         10.70198       10.56008       -0.84847
C         11.83556       10.88037       -1.60774
C         11.98994       10.38700       -2.90239
C         10.99197        9.60515       -3.47611
C          9.83895        9.30456       -2.75014
C          9.69429        9.74755       -1.41779
C          7.53324        8.96334        1.43499
C          7.71579        8.27722        2.60984
C          6.84358        7.21727        3.00146
N          6.17937        6.34484        3.32501
C          8.89279        8.40677        3.36652
N          9.87953        8.52135        3.98301
C          0.77335        8.24915        2.48731
C          0.49303        7.06992        1.52248
O          1.00149        5.80553        2.01667
C          2.40978        5.64614        2.15124
C          5.28981        4.66353       -3.61063
C          6.19730        5.03427       -4.75097
C          7.32425        3.99378       -4.99761
N          6.84157        2.78362       -5.70251
C          6.50308        2.78695       -7.03028
C          7.16347        3.32735       -8.07351
C          6.67399        3.24319       -9.43432
C          6.41001        2.09365      -10.06697
C          5.62159        1.97964      -11.33045
O          5.44150        2.86738      -12.14341
C          5.07323        0.59827      -11.31751
C          5.48275       -0.06158      -10.13648
C          4.96166       -1.29302       -9.79185
C          4.13405       -1.93343      -10.71398
C          3.85610       -1.35923      -11.97066
C          3.14857       -2.08997      -12.93901
C          2.91309       -1.55240      -14.20858
C          3.35480       -0.26917      -14.51962
C          4.03042        0.48508      -13.56553
C          4.30829       -0.05184      -12.28806
C          6.58620        0.73678       -9.56959
C          7.78356        0.16900       -9.28986
C          8.97925        0.79035       -9.76359
N          9.92122        1.23975      -10.26767
C          7.90887       -1.14907       -8.78238
N          7.99310       -2.22255       -8.33456
H          9.88397        6.33603       -3.30745
H          9.48964        5.49338       -4.79239
H         10.59378        4.73512       -3.61421
H          8.83791        2.89083       -3.84601
H          7.44530        2.93553       -1.67590
H          6.85145        1.90891       -2.98670
H          4.72294        2.69787       -0.90478
H          3.32500        7.17153       -2.61805
H          3.49931        6.61446       -5.61799
H          4.85445       11.95181       -6.83301
H          1.68843       13.50171       -3.97346
H          1.29763        7.34044       -2.68381
H         -0.38288        9.79103       -1.99137
H         -1.04080        8.13924       -0.42586
H          0.78243        6.41460       -0.51472
H          2.50046        8.47822       -0.94453
H          2.97915        6.96297       -0.25177
H          2.45120       10.13584        4.04543
H          4.85899        8.55616       -0.76464
H          9.50317       10.95336        2.33764
H         11.33377       11.70148        0.88970
H         12.62643       11.49275       -1.18037
H         12.89587       10.61080       -3.45969
H         11.11715        9.21806       -4.48380
H          9.07703        8.68326       -3.21719
H          0.00241        9.01993        2.36968
H          0.72288        7.88059        3.52051
H         -0.59389        6.91356        1.54931
H          2.60774        4.70636        2.67180
H          2.86631        6.43767        2.74665
H          2.89117        5.55804        1.17722
H          6.65446        6.00300       -4.51624
H          5.60483        5.16184       -5.66330
H          8.05095        4.46716       -5.66012
H          6.17278        2.25797       -5.13606
H          5.56049        2.25893       -7.19533
H          8.09860        3.85410       -7.92519
H          6.45610        4.19753       -9.92229
H          5.20785       -1.78613       -8.85607
H          3.75768       -2.92403      -10.46845
H          2.80020       -3.09418      -12.72131
H          2.40030       -2.14925      -14.95729
H          3.18260        0.13942      -15.51188
H          4.37446        1.47781      -13.83995
