84

C          2.06448       -0.18264        1.38483
C          2.72075       -0.43474        0.03561
C          3.14449       -1.88653       -0.17771
C          4.50498       -2.30517        0.19729
C          5.45264       -1.28162        0.82228
C          5.42913       -1.26553        2.34331
C          4.93399       -3.67027       -0.01631
C          6.18444       -4.41395        0.21059
C          7.43843       -3.90858        0.69744
C          8.34211       -4.57359        1.44324
C          9.57061       -3.99502        1.90872
C         10.07287       -2.77760        1.77215
S         10.01647       -1.19499        1.18943
C         11.48135       -1.30981        2.15856
C         11.28867       -2.59448        2.47625
N         11.64450       -3.77493        3.12468
C         10.65252       -4.59076        2.81304
C         10.53460       -5.99670        3.25493
C         11.03157       -6.39291        4.44236
C         10.87132       -7.73821        4.92352
S          9.44947       -8.63672        4.50645
C          9.97296      -10.03292        5.30302
C         11.17619       -9.85956        5.95218
C         11.86268      -10.94428        6.73177
F         11.15739      -12.10509        6.71733
F         13.08576      -11.22578        6.22330
F         12.03154      -10.60280        8.03022
C         11.68382       -8.49490        5.77737
C         12.95763       -8.04549        6.44309
F         13.30447       -6.76772        6.15984
F         12.85307       -8.12982        7.79305
F         14.00487       -8.82670        6.08200
C          6.08593       -5.73925       -0.16331
S          4.55952       -6.13388       -0.76814
C          3.98883       -4.53632       -0.56038
C          2.68608       -4.13523       -0.91019
S          1.52206       -5.19651       -1.57831
C          0.35664       -3.97182       -1.66705
C          0.84013       -2.76073       -1.21719
C         -0.04081       -1.63211       -1.20335
C         -0.22385       -0.79028       -2.23411
C         -1.18787        0.31885       -2.07029
N         -1.51686        0.86970       -0.91234
C         -2.42803        1.85530       -1.27871
C         -3.27519        2.85470       -1.00886
S         -3.73115        3.09729       -2.69415
C         -2.59080        1.85250       -2.69192
C         -1.85808        0.93475       -3.28747
C         -1.81884        0.54478       -4.64534
S         -2.86121       -0.72541       -5.14826
C         -2.40390       -0.56616       -6.77630
C         -1.44910        0.41174       -6.97252
C         -0.86488        0.76220       -8.31124
F         -1.38358        0.00509       -9.31062
F         -1.09897        2.05598       -8.63406
F          0.47594        0.57753       -8.32980
C         -1.09113        1.06057       -5.71333
C         -0.06499        2.15645       -5.63394
F          0.11054        2.63015       -4.37699
F          1.14539        1.71491       -6.05467
F         -0.39941        3.21037       -6.41434
C          2.22175       -2.83485       -0.74551
H          2.01540        0.89367        1.58170
H          2.60274       -0.64900        2.20926
H          1.04681       -0.57929        1.41547
H          3.55752        0.25069       -0.10607
H          2.03704       -0.12548       -0.75792
H          5.30124       -0.27381        0.43421
H          6.46687       -1.47735        0.48913
H          4.51217       -0.82218        2.72979
H          6.25232       -0.65366        2.72569
H          5.51726       -2.26902        2.76926
H          7.68966       -2.90178        0.39580
H          8.13812       -5.59714        1.74264
H         12.24981       -0.58974        2.42259
H         10.01827       -6.66975        2.58374
H         11.57016       -5.67714        5.05993
H          9.36721      -10.93042        5.26985
H          6.85323       -6.50081       -0.13198
H         -0.63134       -4.20408       -2.04212
H         -0.62556       -1.50071       -0.29313
H          0.31471       -0.88759       -3.16811
H         -3.58349        3.32334       -0.07903
H         -2.85808       -1.20187       -7.52750
