57

N         -3.94803        0.62473       -0.35458
C         -2.81935        0.42204       -0.20464
C         -1.40948        0.16442       -0.03289
C         -0.45809        1.16945        0.07067
C         -0.55296        2.65121        0.05114
C         -1.58394        3.34451        0.67687
F         -2.52533        2.67684        1.35992
C         -1.65625        4.75020        0.66126
F         -2.72321        5.28699        1.27496
C         -0.67404        5.56981        0.06126
C         -0.78202        7.04869        0.10083
N         -1.88229        7.57589        0.75390
C         -2.12170        8.91753        0.88019
C         -1.33550        9.95093        0.40452
C         -0.19396        9.50240       -0.27741
N          0.72284       10.31255       -0.83049
S          1.86363        9.33340       -1.51993
N          1.24478        7.84946       -1.14889
C          0.11021        8.02520       -0.45241
C          0.37079        4.85290       -0.53559
F          1.41507        5.46113       -1.10535
C          0.41488        3.44935       -0.56469
F          1.44739        2.88836       -1.21594
S          1.09138        0.47646        0.32043
C          0.55458       -1.13645        0.08952
C          1.50710       -2.21292        0.08907
C          2.73314       -2.07242       -0.44721
C          3.78209       -3.09503       -0.38431
C          3.93614       -4.05369       -1.38025
F          3.07542       -4.09290       -2.40888
C          5.00925       -4.95479       -1.35743
F          5.15798       -5.75618       -2.42290
C          5.94962       -4.98005       -0.31001
C          7.06879       -5.94087       -0.25505
C          8.35489       -5.64989        0.24410
N          9.45615       -6.47102        0.33257
C          9.39852       -7.75845       -0.10451
C          8.17808       -8.21955       -0.62811
N          7.93807       -9.44776       -1.11457
S          6.34764       -9.46328       -1.58072
N          5.88658       -7.93500       -1.14051
C          6.98001       -7.29780       -0.68303
C          5.77632       -3.99748        0.68007
F          6.64352       -3.91170        1.70103
C          4.72852       -3.07049        0.63809
F          4.66264       -2.12462        1.58850
C         -0.83761       -1.17510        0.02219
C         -1.62684       -2.44861       -0.03024
F         -2.96638       -2.25520       -0.00602
F         -1.35288       -3.16168       -1.15044
F         -1.33622       -3.24984        1.02806
H         -3.04025        9.14678        1.42057
H         -1.57348       10.99575        0.53864
H          1.21441       -3.15865        0.54086
H          3.04988       -1.15317       -0.93655
H          8.57440       -4.65075        0.62530
H         10.29045       -8.36525       -0.02292
