102

C          2.74441       -1.74667       -0.31495
O          2.26835       -0.46808       -0.69437
C          3.20195        0.49604       -0.88867
C          2.90876        1.80143       -0.50239
C          1.77312        2.32554        0.17886
C          1.87732        3.46638        0.87921
C          0.75503        4.00294        1.56903
S          0.43745        3.49837        3.18520
C         -0.95534        4.51906        3.36840
C         -1.63387        4.47080        4.62571
C         -2.95549        4.67160        4.75043
C         -3.64468        4.67016        6.02279
C         -3.41938        5.49778        7.06129
C         -3.85403        5.22334        8.45427
C         -5.07524        4.79896        8.85308
C         -5.41760        4.63082       10.22530
N         -5.69771        4.48768       11.33955
C         -6.13246        4.54952        7.92612
N         -6.98301        4.33484        7.17170
C         -2.68436        5.63720        9.30424
C         -2.36748        5.36054       10.62817
C         -1.14766        5.81411       11.14135
C         -0.23845        6.50709       10.33345
C         -0.53789        6.78140        8.99950
C         -1.76615        6.37260        8.49682
C         -2.36919        6.53785        7.14514
C         -2.19881        7.59352        6.31533
C         -3.13235        7.86728        5.27380
N         -3.92558        8.12457        4.46612
C         -1.19828        8.58555        6.52022
N         -0.37683        9.38817        6.68416
C         -1.13214        5.26333        2.21375
C         -2.12913        6.23515        2.04807
C         -2.10639        6.85626        0.78580
C         -1.15747        6.54259       -0.22679
C         -0.13476        5.58314       -0.07091
C         -0.16083        4.95941        1.18496
O          3.94366        2.59055       -0.91111
C          4.88651        1.84140       -1.54882
C          6.04616        2.42794       -2.12346
C          5.99648        3.68298       -2.59403
C          7.17140        4.27197       -3.12622
S          8.33216        4.91182       -2.02991
C          9.41550        5.39699       -3.27553
C         10.68021        5.92078       -2.88019
C         11.07444        7.19509       -3.06354
C         12.51010        7.58372       -3.12506
C         13.48200        7.28338       -2.23239
C         14.81198        7.77483       -2.35295
N         15.89877        8.16916       -2.45544
C         13.21731        6.49808       -1.07298
N         12.99784        5.84334       -0.14085
C         12.60067        8.47177       -4.33119
C         13.68840        8.84022       -5.11288
C         13.46098        9.58811       -6.27147
C         12.16213        9.94350       -6.65614
C         11.06149        9.56962       -5.88480
C         11.28127        8.85039       -4.71858
C         10.32064        8.27635       -3.73109
C          9.14157        8.81732       -3.34731
C          8.48614        8.43093       -2.14183
N          7.96066        8.19622       -1.13367
C          8.55946        9.93215       -4.01964
N          8.09025       10.83428       -4.57224
C          8.90013        5.06080       -4.51498
C          9.58046        5.25867       -5.72566
C          8.85908        4.76833       -6.83821
C          7.58183        4.13369       -6.74524
C          6.89679        3.92659       -5.53004
C          7.60796        4.41490       -4.42592
C          4.48881        0.50194       -1.52249
C          5.31247       -0.56248       -2.14521
F          4.81899       -1.81616       -2.04335
F          5.50004       -0.33518       -3.47335
F          6.55583       -0.60682       -1.59061
H          3.56944       -1.69647        0.40297
H          3.00289       -2.33069       -1.19813
H          1.91513       -2.28051        0.16076
H          0.84021        1.77234        0.12898
H          2.81605        4.01207        0.94660
H         -1.03948        4.23524        5.50782
H         -3.60172        4.79344        3.88411
H         -4.35755        3.85015        6.09479
H         -3.01435        4.78815       11.28292
H         -0.89178        5.60905       12.17938
H          0.71522        6.82879       10.74822
H          0.20389        7.29135        8.39302
H         -2.86822        6.51918        2.77799
H         -2.85887        7.61831        0.57875
H         -1.22813        7.08014       -1.17221
H          0.58022        5.37338       -0.85561
H          6.96309        1.84641       -2.18147
H          5.08517        4.27512       -2.57308
H         11.37908        5.16348       -2.53299
H         14.70640        8.54526       -4.88404
H         14.30289        9.87832       -6.89755
H         12.00807       10.50344       -7.57680
H         10.06683        9.82687       -6.23453
H         10.55730        5.71081       -5.83383
H          9.30464        4.86634       -7.82954
H          7.11655        3.77842       -7.66636
H          5.94106        3.41930       -5.48494
