71

O          3.12916        0.22569       -7.67883
C          3.88196        1.00392       -7.09361
C          3.78249        1.44826       -5.73586
O          4.77514        2.29448       -5.34076
N          4.61319        2.64295       -4.01868
C          3.51167        2.00749       -3.62502
C          2.92450        1.23174       -4.65883
C          1.73519        0.39129       -4.57999
C          1.41217       -0.23519       -3.35679
C          0.28303       -1.06201       -3.20948
C         -0.54777       -1.26364       -4.32244
C         -0.23261       -0.60099       -5.50175
C          0.87456        0.22958       -5.67365
O         -1.15599       -0.87247       -6.46264
C         -2.05122       -1.73807       -5.91797
C         -3.15666       -2.26531       -6.58573
C         -3.98606       -3.18630       -5.91236
C         -5.18493       -3.79175       -6.58458
C         -6.35062       -4.12969       -5.82763
N         -6.53056       -3.94797       -4.50541
S         -8.00785       -4.54323       -4.09574
N         -8.51806       -5.04443       -5.57579
C         -7.56206       -4.74140       -6.47382
C         -7.62864       -4.96481       -7.88130
C         -8.85935       -5.55416       -8.48779
C         -8.78063       -6.50669       -9.52741
C         -9.91453       -7.06905      -10.13810
C        -11.18052       -6.72090       -9.64899
C        -11.25509       -5.81226       -8.60491
C        -10.14607       -5.18727       -8.03474
O        -12.54935       -5.63211       -8.21749
C        -13.31528       -6.42292       -9.01987
C        -14.70179       -6.56023       -8.93543
C        -15.32173       -7.41379       -9.86685
C        -16.76284       -7.61502       -9.79653
C        -17.59338       -7.65738       -8.64780
N        -18.87592       -7.85512       -8.94969
O        -18.91358       -7.93858      -10.32521
C        -17.65668       -7.78829      -10.84160
C        -17.57956       -7.82824      -12.27723
O        -16.57411       -7.70274      -12.96567
C        -14.53683       -8.08883      -10.81432
C        -13.14481       -7.92525      -10.88026
C        -12.52149       -7.08578       -9.94659
C         -6.46816       -4.60627       -8.60798
N         -6.49237       -4.79151       -9.94809
C         -5.38813       -4.51175      -10.66756
F         -5.42273       -4.73755      -11.98835
C         -4.25093       -4.03563      -10.07374
F         -3.15857       -3.77867      -10.80540
N         -4.19078       -3.81552       -8.74432
C         -5.27628       -4.06622       -7.97851
C         -3.62923       -3.50323       -4.57994
C         -2.52738       -2.93403       -3.91001
C         -1.71647       -2.02779       -4.60515
H          4.73943        1.42796       -7.64781
H          3.18102        2.13661       -2.60388
H          2.04716       -0.10209       -2.48183
H          0.06572       -1.53686       -2.25714
H          1.03004        0.71083       -6.63005
H         -3.32988       -1.95369       -7.60824
H         -7.81180       -6.83714       -9.90011
H         -9.80357       -7.77768      -10.95319
H        -10.30203       -4.46159       -7.24471
H        -15.25116       -6.02079       -8.17258
H        -17.31749       -7.55899       -7.60700
H        -18.55121       -7.99098      -12.77727
H        -14.98644       -8.77532      -11.52789
H        -12.56724       -8.44708      -11.63716
H         -4.21344       -4.21890       -4.00350
H         -2.31188       -3.21099       -2.88258
