85

C         -1.84920       -7.36379      -10.27135
C         -0.49505       -7.46219      -10.25572
C          0.37187       -7.25023      -11.36239
C          1.64962       -6.99513      -11.05638
C          1.91283       -6.87834       -9.64149
S          0.57398       -7.70725       -8.89737
C          3.03169       -6.43752       -8.99140
C          4.35193       -6.31592       -9.56582
C          5.34116       -6.07347       -8.67846
C          4.88111       -5.88243       -7.30831
S          3.12998       -6.07406       -7.29648
C          5.69120       -5.64321       -6.23141
C          5.23231       -5.49171       -4.87962
N          3.94632       -5.56074       -4.59954
C          3.57334       -5.50576       -3.28325
C          4.80279       -5.27447       -2.65793
C          5.80629       -5.26556       -3.65658
C          2.17134       -5.63764       -2.90877
C          1.84960       -5.52995       -1.43565
O          2.64386       -5.13777       -0.58451
N          0.60124       -5.87526       -1.02839
C          1.24327       -5.83959       -3.90197
N         -0.15787       -5.89449       -4.00842
C         -0.94319       -5.88660       -5.13397
S         -0.77548       -6.87111       -6.50924
C         -1.49290       -5.60217       -7.44367
N         -1.28368       -5.07282       -8.77342
O         -2.31346       -4.73160       -9.37920
O         -0.13827       -4.84209       -9.18017
C         -2.62035       -5.35333       -6.72165
C         -2.25417       -5.46436       -5.34533
C         -3.20240       -5.22056       -4.35858
C         -2.95950       -4.78146       -3.11946
C         -3.90443       -4.71125       -2.14304
N         -4.95106       -5.61278       -2.14355
C         -5.84265       -5.32034       -1.14707
C         -5.24492       -4.32926       -0.37856
C         -4.05222       -3.93763       -1.00496
C         -7.06758       -6.06722       -1.09692
C         -7.64838       -6.39911        0.25941
O         -6.99013       -6.34123        1.29394
N         -8.95614       -6.76615        0.33011
C         -7.61277       -6.42764       -2.28422
C         -8.80907       -7.18719       -2.55388
C         -9.84957       -6.72431       -3.26169
C        -11.06370       -7.46601       -3.47424
C        -11.98055       -6.79836       -4.18617
C        -11.56376       -5.46644       -4.59616
S         -9.93697       -5.14223       -3.99931
C        -12.29228       -4.59952       -5.32659
C        -13.63469       -4.83325       -5.83187
C        -14.13167       -3.82092       -6.55554
C        -13.22370       -2.71066       -6.67630
S        -11.73475       -2.99785       -5.82142
C        -13.46534       -1.58754       -7.35636
H         -2.41074       -7.16067      -11.19205
H         -2.51675       -7.28009       -9.41122
H         -0.01764       -7.32568      -12.37453
H          2.44269       -6.88205      -11.77190
H          4.51718       -6.56154      -10.60196
H          6.39225       -6.07078       -8.94646
H          6.76004       -5.57348       -6.37606
H          3.26078       -5.68446       -5.36527
H          4.94152       -5.13709       -1.59026
H          6.92137       -5.08508       -3.46957
H          0.37299       -5.65941       -0.06643
H         -0.15405       -5.98922       -1.66523
H          1.58055       -5.98813       -4.91067
H         -0.59257       -5.50513       -3.20863
H         -3.52279       -4.94331       -7.15046
H         -4.22713       -5.46755       -4.65255
H         -1.95498       -4.43325       -2.83750
H         -5.05755       -6.35790       -2.81232
H         -5.64484       -3.90100        0.53178
H         -3.33206       -3.18488       -0.68828
H         -9.58230       -6.80843       -0.45535
H         -9.33416       -6.96535        1.24475
H         -7.14408       -6.10446       -3.21460
H         -8.84739       -8.18221       -2.11409
H        -11.21172       -8.46485       -3.08790
H        -12.94258       -7.22082       -4.43547
H        -14.19002       -5.74059       -5.64538
H        -15.11310       -3.82534       -7.00869
H        -14.39983       -1.43268       -7.88428
H        -12.73120       -0.78914       -7.40645
