97

C          1.48932        6.92075        1.59174
S          2.87279        7.41420        0.72542
C          3.60268        5.85782        0.83660
C          2.69533        4.94383        1.35672
C          1.50524        5.57534        1.89030
C          0.41067        4.82328        2.62840
C          0.31994        5.24180        4.10106
C          0.56836        3.28846        2.53762
C          2.03613        2.84038        2.52495
C          2.81701        3.44155        1.33989
C          2.30050        2.93239        0.00184
C          2.82278        1.90600       -0.66905
N          4.87026        5.69645        0.35740
C          5.87834        4.84781        0.72423
S          6.99513        4.37653       -0.51109
C          7.82477        3.32930        0.52536
N          8.89340        2.50044        0.02309
O          9.50618        1.82013        0.86462
O          9.11321        2.49397       -1.19644
C          7.37004        3.39398        1.82016
C          6.24959        4.29170        1.95077
C          5.61808        4.52749        3.22540
C          5.05287        5.68451        3.61304
C          4.32199        5.86624        4.84507
C          3.66007        6.97849        5.23209
C          3.53493        8.26860        4.46288
C          2.92635        6.98696        6.54887
N          3.85005        7.42537        7.56950
C          3.66389        8.49985        8.39495
C          4.52142        8.93803        9.32382
C          4.30049       10.12345       10.12228
C          4.17232       11.37339        9.65269
C          4.01967       12.54530       10.47794
C          4.06428       13.69805        9.79186
C          4.25584       13.52554        8.35872
S          4.24132       11.81112        7.96089
C          4.47700       14.49167        7.44483
C          4.58931       15.91461        7.70993
C          4.97070       16.63298        6.64241
C          5.18433       15.84789        5.44519
S          4.75003       14.18054        5.72177
C          5.64851       16.35313        4.28890
C          5.87962       15.66187        3.03876
C          5.25793       16.00749        1.88483
C          5.72494       15.09907        0.86546
C          5.34740       14.95757       -0.41807
C          5.96442       13.86903       -1.14801
C          5.71719       13.38788       -2.38069
C          6.60729       12.24820       -2.66021
C          7.44047       12.07820       -1.60609
C          7.03685       13.02824       -0.59434
C          7.43765       13.19191        0.68180
C          6.73639       14.20975        1.45144
C          6.81375       14.55308        2.74926
C          6.66995       11.45008       -3.86379
C          5.61286       11.17739       -4.63646
H          0.71450        7.63938        1.82235
H         -0.54783        5.08226        2.15816
H          1.18490        4.89197        4.67373
H         -0.57842        4.81366        4.56169
H          0.25941        6.32916        4.21197
H          0.07527        2.92791        1.62865
H          0.05090        2.79791        3.37138
H          2.08697        1.74479        2.49197
H          2.51371        3.14617        3.46367
H          3.85480        3.13183        1.45079
H          1.47815        3.48909       -0.45226
H          3.65250        1.33150       -0.27287
H          2.42645        1.62205       -1.64128
H          5.13488        6.38115       -0.34819
H          7.81389        2.83849        2.63903
H          5.60303        3.68323        3.91262
H          5.09813        6.53756        2.94548
H          4.31229        5.00668        5.51527
H          4.18761        9.03416        4.89279
H          2.50403        8.64203        4.49951
H          3.78772        8.17023        3.40849
H          2.57200        5.98118        6.80129
H          2.03120        7.61931        6.49940
H          4.82110        7.15999        7.42375
H          2.72258        9.02226        8.22755
H          5.43560        8.38429        9.52524
H          4.31257        9.95040       11.19558
H          3.90107       12.48522       11.55230
H          3.98018       14.66408       10.26726
H          4.40844       16.35165        8.67648
H          5.12426       17.70353        6.66594
H          5.85444       17.42215        4.24025
H          4.52418       16.78311        1.74067
H          4.60035       15.58162       -0.88931
H          4.97924       13.75584       -3.07534
H          8.22151       11.34288       -1.49990
H          8.20739       12.58772        1.14144
H          7.45146       14.10491        3.49535
H          7.63795       11.03158       -4.12848
H          4.61438       11.53567       -4.40339
H          5.71820       10.55572       -5.52212
