101

C          3.73098      -13.20450        4.30012
C          3.77246      -13.60334        3.02725
C          2.95373      -14.63354        2.44774
C          3.10863      -14.74673        1.12069
C          4.04205      -13.78029        0.55142
S          4.83141      -12.88108        1.84954
C          4.21862      -13.52307       -0.75940
C          3.52171      -14.18309       -1.85052
C          3.66992      -13.56878       -3.03165
C          4.50934      -12.39281       -2.97165
S          5.24496      -12.22577       -1.40258
C          4.64294      -11.51864       -3.98264
N          5.36382      -10.34157       -4.10503
C          5.41830       -9.55672       -5.22524
C          5.42683      -10.11518       -6.49232
S          5.43989       -8.95183       -7.73711
C          5.43336       -7.68004       -6.60362
C          5.42934       -8.10802       -5.28762
N          5.40924       -7.24784       -4.22135
C          4.99135       -5.92042       -4.22004
C          5.07397       -5.01345       -3.23049
C          4.43899       -3.68708       -3.33876
C          3.14204       -3.53019       -2.83120
C          2.45890       -2.33982       -3.06280
C          3.09886       -1.25860       -3.70069
C          4.40355       -1.37623       -4.14693
C          5.06395       -2.60507       -3.98802
C          2.16521       -0.15542       -3.82295
C          0.92783       -0.53414       -3.26904
C          0.97036       -2.01899       -2.83405
C          0.46202       -2.28859       -1.40093
C          1.21466       -1.60077       -0.26802
C          0.12816       -2.81137       -3.89022
C         -0.00722       -4.31633       -3.67215
C         -0.15318        0.34584       -3.28643
C         -0.00723        1.60708       -3.90361
C          1.23103        1.95598       -4.47489
C          2.32539        1.08234       -4.42393
C         -1.18682        2.49825       -3.93135
C         -1.32207        3.63650       -4.61130
C         -2.60334        4.42857       -4.58695
S         -2.61576        6.09672       -4.82754
C         -3.86013        3.67529       -4.32110
C         -4.37004        2.62001       -5.13209
S         -3.54612        2.15335       -6.64181
C         -4.78951        0.95695       -6.79013
C         -5.73967        0.98163       -5.76938
O         -5.53265        1.93729       -4.79505
C         -6.81970        0.05833       -5.80106
C         -7.99924        0.31661       -5.22346
N         -9.14364       -0.47581       -5.20396
C         -9.75055       -1.06407       -6.29787
C         -9.37430       -0.96275       -7.62066
S        -10.42957       -1.81439       -8.67366
C        -11.43688       -2.29537       -7.37513
C        -10.96771       -1.82509       -6.17349
N        -11.59212       -2.02346       -4.98021
C        -11.17275       -1.14635       -3.88316
C         -9.64413       -0.94788       -3.88342
H          3.04273      -13.64448        5.01298
H          4.37486      -12.40789        4.66041
H          2.27137      -15.23490        3.03268
H          2.55280      -15.45976        0.52941
H          2.90879      -15.06338       -1.71884
H          3.19167      -13.90334       -3.94314
H          4.04865      -11.71302       -4.87600
H          5.97964      -10.14666       -3.30826
H          5.43974      -11.16445       -6.75068
H          5.43633       -6.66221       -6.97019
H          5.60943       -7.61039       -3.29306
H          4.49409       -5.63158       -5.14496
H          5.54950       -5.23776       -2.28450
H          2.65905       -4.35352       -2.31523
H          4.89776       -0.54916       -4.64894
H          6.06950       -2.71352       -4.38868
H          0.50334       -3.36459       -1.19392
H         -0.59636       -2.00422       -1.32693
H          2.27565       -1.86557       -0.26757
H          0.79938       -1.92592        0.69354
H          1.11938       -0.51305       -0.31834
H          0.55638       -2.65814       -4.89149
H         -0.88842       -2.39892       -3.93522
H          0.95021       -4.81259       -3.51519
H         -0.45307       -4.77882       -4.55823
H         -0.65477       -4.53841       -2.81959
H         -1.10478        0.03974       -2.86691
H          1.36868        2.90822       -4.97965
H          3.26717        1.36983       -4.87683
H         -2.01321        2.13349       -3.32457
H         -0.52420        4.06801       -5.21471
H         -4.47888        4.04708       -3.51112
H         -4.83321        0.26530       -7.61877
H         -6.68080       -0.88468       -6.32120
H         -8.15172        1.23644       -4.66052
H         -8.53402       -0.43364       -8.04267
H        -12.32104       -2.88634       -7.56383
H        -12.57412       -2.28415       -4.96764
H        -11.48633       -1.58739       -2.93133
H        -11.67494       -0.17684       -3.98522
H         -9.15090       -1.90275       -3.65395
H         -9.37183       -0.24151       -3.09042
