104

C         -1.38923       -0.52911        1.52572
C         -1.74899        0.74431        0.99528
C         -2.26243        0.64775       -0.27766
S         -2.82907        1.98287       -1.26581
C         -1.30841        2.38666       -2.15646
S         -2.34326       -0.97068       -0.80757
C         -1.64608       -1.56856        0.64952
C         -1.44446       -2.96844        0.79402
C         -0.44646       -3.45850        1.54739
C         -0.18484       -4.89289        1.72413
C         -0.46351       -5.81173        0.70675
C         -0.13294       -7.14390        0.88851
C          0.42962       -7.58346        2.09930
C          0.70022       -6.69285        3.12269
C          0.40824       -5.34065        2.92111
C          0.60716       -9.01028        2.04179
C          0.17203       -9.49229        0.78699
C         -0.35629       -8.32015       -0.06894
C          0.53867       -8.19200       -1.33790
C          0.17958       -7.08962       -2.33271
C         -1.86388       -8.48101       -0.40348
C         -2.81118       -8.50003        0.80071
C          0.25776      -10.84603        0.47532
C          0.75569      -11.73317        1.44446
C          1.17017      -11.21999        2.69602
C          1.10133       -9.86580        3.00123
C          0.81840      -13.17768        1.14684
C          1.22285      -14.08184        2.04843
C          1.29483      -15.50509        1.84337
C          1.19216      -16.40012        2.83784
C          1.40885      -17.81182        2.67303
C          1.33216      -18.49975        3.81935
C          0.98417      -17.69284        4.97850
S          0.76845      -16.01916        4.49716
C          0.80279      -18.15478        6.23003
C          1.06769      -19.50986        6.67617
C          0.55434      -19.79531        7.88108
C         -0.19217      -18.69645        8.45071
S          0.13479      -17.21645        7.56694
C         -1.09562      -18.73180        9.44361
C         -1.56863      -19.95408       10.11330
C         -2.69142      -20.68639        9.69759
C         -3.04177      -21.96147       10.28281
N         -4.10990      -22.62180        9.76671
C         -4.86093      -22.04422        8.78464
C         -4.54261      -20.81142        8.27568
N         -3.44606      -20.14353        8.71280
C         -5.33814      -20.14057        7.28201
N         -6.00003      -19.61282        6.49432
C         -5.99745      -22.79697        8.33949
N         -6.92326      -23.38870        7.96649
C         -2.31495      -22.51859       11.38008
C         -1.32996      -21.66261       11.96838
C         -0.90109      -20.39807       11.27678
N          0.15211      -19.80564       11.86458
S          0.49909      -20.67477       13.22555
N         -0.68389      -21.82565       13.13737
C         -2.53952      -23.89793       11.90727
C         -3.81559      -24.58672       11.93342
C         -3.76372      -25.85129       12.46978
S         -5.10914      -26.96735       12.63300
C         -5.71975      -26.49571       14.26731
S         -2.19707      -26.25574       12.95434
C         -1.53163      -24.75378       12.38732
C         -0.11087      -24.66338       12.53920
C          0.69201      -24.06112       11.65525
H         -0.97759       -0.67598        2.51718
H         -1.63788        1.67738        1.53303
H         -1.50409        3.21437       -2.84401
H         -0.95534        1.53089       -2.73872
H         -0.52720        2.69579       -1.45678
H         -2.12463       -3.63122        0.26478
H          0.24540       -2.79716        2.06239
H         -0.93737       -5.49860       -0.21558
H          1.12637       -7.02723        4.06269
H          0.63225       -4.63616        3.71887
H          0.52441       -9.13948       -1.89204
H          1.58434       -8.03686       -1.03604
H         -0.82758       -7.21686       -2.73796
H          0.87630       -7.11082       -3.17743
H          0.26089       -6.09317       -1.89514
H         -2.01994       -9.40171       -0.97874
H         -2.19438       -7.65421       -1.04350
H         -2.53876       -9.27018        1.52718
H         -3.83414       -8.70107        0.46639
H         -2.82949       -7.53231        1.31350
H         -0.05805      -11.20624       -0.50016
H          1.55849      -11.86234        3.47950
H          1.42479       -9.51639        3.97474
H          0.47032      -13.49727        0.16848
H          1.54797      -13.77477        3.03664
H          1.50906      -15.83235        0.82957
H          1.62821      -18.25540        1.71221
H          1.46469      -19.56993        3.86395
H          1.65024      -20.21031        6.09505
H          0.68643      -20.74694        8.37392
H         -1.61117      -17.82040        9.73864
H         -4.74603      -24.17216       11.56742
H         -4.95935      -26.66883       15.03402
H         -6.59964      -27.09776       14.51129
H         -6.00870      -25.44147       14.27503
H          0.33835      -25.11613       13.42328
H          0.32474      -23.59721       10.74949
H          1.75460      -23.97412       11.86268
