128

C         -0.61191       -3.48019       -7.60031
C          0.41238       -2.56368       -7.82083
C          1.74489       -2.91491       -7.48539
C          2.78937       -1.95719       -7.73782
N          3.61990       -1.17889       -7.94872
C          2.03939       -4.17280       -6.91325
C          3.37413       -4.53115       -6.51825
N          4.44100       -4.83912       -6.17712
C          1.01094       -5.09798       -6.70184
C         -0.27968       -4.73060       -7.05442
C         -1.49071       -5.54495       -6.86773
O         -1.52085       -6.75266       -6.78895
C         -2.62597       -4.57597       -6.97186
C         -2.09825       -3.43721       -7.76525
C         -2.80154       -2.65121       -8.61371
C         -2.16969       -1.69280       -9.45906
N         -1.62709       -0.92722      -10.13943
C         -4.20858       -2.79318       -8.78668
N         -5.35658       -2.90866       -8.91941
C         -3.75940       -4.66017       -6.25189
C         -4.09843       -5.69954       -5.25707
C         -4.85921       -6.82181       -5.61483
C         -5.22518       -7.73875       -4.62454
C         -4.80468       -7.57771       -3.28951
C         -4.06212       -6.46444       -2.92385
C         -3.71995       -5.52201       -3.90895
C         -5.29656       -8.69062       -2.49808
C         -6.10892       -9.52472       -3.29359
C         -6.09213       -9.01450       -4.75333
C         -7.50214       -8.69165       -5.31087
C         -8.28526       -7.60571       -4.57676
C         -5.34039      -10.00246       -5.68678
C         -5.95048      -11.39188       -5.80926
C         -6.78635      -10.62446       -2.73421
C         -6.59869      -10.95703       -1.37759
C         -5.69192      -10.15233       -0.63707
C         -5.06926       -9.01290       -1.17395
C         -7.44434      -11.98716       -0.68519
S         -7.94517      -11.57106        0.93263
C         -9.14482      -12.79290        1.07359
C         -9.16465      -13.51078       -0.11321
C         -8.04808      -13.19249       -1.03730
C         -7.77206      -14.00312       -2.17345
C         -6.58222      -14.07958       -3.09129
F         -5.53149      -13.28703       -2.77159
F         -6.07138      -15.34873       -3.13864
F         -6.92194      -13.79590       -4.37899
C         -8.77597      -15.00426       -2.37887
C         -9.89882      -15.22504       -1.54570
C        -10.12537      -14.50145       -0.36991
C         -9.90974      -12.90829        2.36081
C        -10.41860      -14.14476        2.81346
C        -11.16518      -14.22145        3.99547
C        -11.36163      -13.07995        4.79262
C        -10.84728      -11.86008        4.39629
C        -10.14259      -11.77871        3.18326
C        -12.22559      -13.40509        5.90629
C        -12.68692      -14.72895        5.76814
C        -11.95466      -15.41137        4.58419
C        -12.96104      -16.01150        3.57035
C        -13.90535      -15.00378        2.90941
C        -10.99895      -16.48035        5.19209
C        -10.18691      -17.32378        4.21441
C        -13.67876      -15.23021        6.61493
C        -14.19143      -14.39539        7.62111
C        -13.60945      -13.13611        7.84304
C        -12.64731      -12.62254        6.96749
C        -15.30303      -14.82128        8.47545
C        -16.62931      -14.68172        8.30054
C        -17.48212      -15.43477        9.28578
O        -17.15159      -15.94816       10.33452
C        -18.83338      -15.47878        8.71848
C        -19.93143      -16.09813        9.30661
C        -21.16768      -16.01427        8.65888
C        -21.26134      -15.32827        7.42978
C        -20.11670      -14.72987        6.85071
C        -18.88444      -14.78544        7.50083
C        -17.53600      -14.14694        7.25887
C        -17.34217      -13.12012        6.39267
C        -16.29065      -12.17446        6.49679
N        -15.56063      -11.26546        6.55793
C        -18.26910      -12.78093        5.36484
N        -19.01938      -12.51731        4.51842
C        -22.52167      -15.18734        6.75366
N        -23.53270      -15.04998        6.19872
C        -22.31818      -16.61617        9.27298
N        -23.23649      -17.10441        9.78198
H          0.22208       -1.57384       -8.23053
H          1.19600       -6.07214       -6.25198
H         -4.49415       -3.85914       -6.27325
H         -5.16951       -6.97593       -6.64337
H         -3.75851       -6.30703       -1.89316
H         -3.16033       -4.63796       -3.60705
H         -8.12051       -9.59633       -5.30790
H         -7.41296       -8.38219       -6.36012
H         -8.42922       -7.85200       -3.52300
H         -9.27630       -7.49960       -5.03313
H         -7.79172       -6.63199       -4.64742
H         -4.29986      -10.12400       -5.35371
H         -5.28455       -9.57472       -6.70093
H         -5.82533      -11.92994       -4.87238
H         -5.43289      -11.97507       -6.57409
H         -7.01126      -11.36521       -6.06824
H         -7.46581      -11.20195       -3.35415
H         -5.48662      -10.37793        0.40813
H         -4.42704       -8.40246       -0.54830
H         -8.66529      -15.67166       -3.24003
H        -10.59850      -16.01583       -1.81660
H        -10.99353      -14.70609        0.24168
H        -10.25173      -15.05038        2.24319
H        -11.02064      -10.96260        4.98294
H         -9.78898      -10.79356        2.88515
H        -13.57304      -16.77401        4.06926
H        -12.42293      -16.52621        2.76552
H        -14.42740      -14.38043        3.64104
H        -14.66454      -15.53327        2.32444
H        -13.36601      -14.34688        2.21965
H        -11.57821      -17.17857        5.81207
H        -10.29132      -15.99213        5.87693
H        -10.82280      -18.02390        3.66523
H         -9.44872      -17.91621        4.76681
H         -9.63006      -16.71884        3.49815
H        -14.04746      -16.24513        6.49481
H        -13.95998      -12.50417        8.65830
H        -12.28325      -11.60919        7.10197
H        -14.94409      -15.35335        9.36106
H        -19.82256      -16.61564       10.25935
H        -20.25624      -14.21402        5.90557
