93

C         -0.37843       -2.02378       -2.48806
C         -0.38415       -2.60384       -1.26390
C          0.80361       -3.05480       -0.62083
N          1.77333       -3.42838       -0.08740
C         -1.57066       -2.85273       -0.51858
N         -2.53918       -3.04411        0.09738
C          0.81785       -1.80440       -3.36897
C          0.37506       -1.45698       -4.64532
C          1.21837       -1.16685       -5.71586
C          2.61127       -1.22552       -5.49537
C          3.07373       -1.57757       -4.21901
C          2.18975       -1.86518       -3.14124
S          4.80204       -1.59645       -4.16886
C          4.91893       -1.12792       -5.78599
C          3.70277       -0.96380       -6.39305
Br         6.55264       -0.85376       -6.66096
C         -1.09130       -1.41341       -4.69924
O         -1.74433       -1.29962       -5.71549
C         -1.56775       -1.59621       -3.28226
C         -2.81786       -1.29765       -2.88656
C         -3.80467       -0.79042       -3.76914
O         -3.96806        0.56237       -4.02873
C         -4.76285       -1.42242       -4.50846
C         -5.25977       -2.72479       -4.81057
O         -4.89137       -3.78933       -4.34910
N         -6.25764       -2.49447       -5.73640
C         -6.43167       -1.16145       -6.06129
O         -7.22657       -0.68437       -6.85086
C         -5.46698       -0.47686       -5.25655
C         -4.96976        0.77043       -4.98478
C         -5.30080        2.04841       -5.51416
C         -4.64984        3.13411       -5.06959
C         -4.86460        4.47453       -5.56521
C         -4.23454        5.58783       -5.13283
C         -3.22801        5.63479       -4.00655
C         -4.55086        6.93158       -5.75870
N         -3.68408        7.16250       -6.90112
C         -2.31895        7.28303       -6.88835
C         -1.48985        7.51950       -7.90948
C         -0.04258        7.54193       -7.74392
C          0.83112        8.22632       -8.50015
C          2.26852        8.11191       -8.40827
C          2.92901        8.78437       -9.36615
C          2.07377        9.59372      -10.21928
S          0.38572        9.39796       -9.71223
C          2.43603       10.35644      -11.27153
C          3.67837       10.36144      -12.02282
C          3.52857       10.87336      -13.26282
C          2.16557       11.31076      -13.53570
S          1.38158       11.55543      -12.00513
C          1.61056       11.45254      -14.75395
C          0.22101       11.72803      -15.03273
S         -0.12112       12.71773      -16.41825
C         -1.78883       12.76128      -16.09616
C         -2.12081       12.02749      -14.98076
C         -0.98587       11.28390      -14.46615
C         -1.20253       10.25777      -13.36143
S         -0.39930        8.66078      -13.72155
C         -2.67841       10.00068      -13.02328
C         -3.44565       11.31996      -12.96945
C         -3.49436       11.95141      -14.36568
O         -4.07866       13.24618      -14.24766
H          0.80833       -0.89010       -6.68422
H          2.63001       -2.11031       -2.17937
H          3.57938       -0.66573       -7.42744
H         -3.13897       -1.36438       -1.85688
H         -6.79579       -3.23469       -6.15204
H         -6.05833        2.11781       -6.28960
H         -3.89303        3.00343       -4.30237
H         -5.58707        4.56875       -6.37615
H         -2.95211        4.65633       -3.61333
H         -3.61989        6.22862       -3.17552
H         -2.28712        6.08696       -4.31968
H         -4.45164        7.74066       -5.02686
H         -5.59643        6.95732       -6.09338
H         -4.13896        7.20988       -7.80847
H         -1.89252        7.18036       -5.89986
H         -1.89104        7.66637       -8.90701
H          0.33757        6.89466       -6.95360
H          2.75358        7.52105       -7.64272
H          4.00671        8.79977       -9.44271
H          4.59827        9.93938      -11.65317
H          4.31378       10.92903      -14.00579
H          2.25548       11.34139      -15.62413
H         -2.45802       13.34248      -16.71906
H         -0.82175       10.65412      -12.42934
H         -0.66968        8.65067      -15.03224
H         -2.73914        9.51236      -12.04108
H         -3.15158        9.33340      -13.75235
H         -2.97117       12.00694      -12.25254
H         -4.46151       11.15582      -12.59345
H         -4.14424       11.35056      -15.01135
H         -3.41871       13.81076      -13.80767
