83

C        -13.29345        0.16779        1.56013
C        -13.94988       -0.45537        2.56053
C        -15.06619       -1.31009        2.33806
N        -15.98446       -2.00023        2.15182
C        -13.52359       -0.35351        3.92392
N        -13.16899       -0.25178        5.01411
C        -13.53830        0.02305        0.09103
C        -12.38622        0.44362       -0.58171
C        -12.27051        0.50084       -1.96362
C        -13.39825        0.13455       -2.73059
C        -14.55615       -0.30105       -2.06574
C        -14.64826       -0.36642       -0.65038
S        -15.79987       -0.71020       -3.19614
C        -14.83594       -0.28017       -4.51327
C        -13.59011        0.15847       -4.15460
Br       -15.41624       -0.38862       -6.29119
C        -11.36899        0.91489        0.37182
O        -10.20271        1.12810        0.12325
C        -12.08417        1.01532        1.68327
C        -11.79584        1.92482        2.63027
C        -10.75140        2.89234        2.51675
S        -11.08918        4.40299        1.74397
C         -9.52920        5.08032        2.08074
C         -8.76313        4.15138        2.76542
C         -9.46355        2.89836        3.00850
C         -8.91299        1.80910        3.69667
C         -7.59608        2.06091        4.11666
F         -6.96125        1.08657        4.78993
C         -6.90339        3.28380        3.88024
F         -5.64595        3.39468        4.33986
C         -7.45159        4.39240        3.19970
C         -9.27396        6.42713        1.66321
C         -8.73432        6.68509        0.45880
C         -8.45488        8.01775       -0.05642
O         -9.56844        8.84413       -0.12517
C         -9.48304       10.00496       -0.82194
C        -10.59442       10.71128       -1.19207
F        -11.81524       10.36205       -0.86464
S        -10.22346       12.04102       -2.18193
C         -7.21288        8.35848       -0.45042
S         -6.70971        9.92499       -0.98873
C         -8.28958       10.62484       -1.28750
C         -8.50931       11.78666       -2.01426
C         -7.59469       12.64512       -2.71370
C         -6.95402       13.70447       -2.19072
C         -6.21394       14.68020       -2.97930
C         -6.16749       15.89211       -2.39492
C         -6.89041       15.90855       -1.12958
S         -7.04805       14.24870       -0.53988
C         -7.58586       16.94346       -0.62026
C         -7.67026       18.28341       -1.16351
C         -8.74712       18.96405       -0.74039
C         -9.59300       18.21446        0.17266
S         -8.76267       16.76535        0.67828
C        -10.84788       18.59216        0.47712
C        -11.79500       17.91050        1.29178
S        -11.48933       16.85615        2.63938
C        -13.16713       16.56847        2.96809
C        -13.88069       17.31130        2.09961
C        -13.14053       18.04194        1.19717
O        -13.84000       18.81664        0.31514
C        -15.12770       18.52394        0.73570
N        -16.17982       19.20052        0.03288
O        -17.33403       18.95541        0.40879
O        -15.86365       19.97322       -0.88026
C        -15.21540       17.61748        1.79937
H        -11.35728        0.86119       -2.42907
H        -15.58505       -0.67816       -0.20106
H        -12.83874        0.48912       -4.86195
H        -12.43332        2.04962        3.50079
H         -9.40497        0.86804        3.90107
H         -6.88924        5.30418        3.05626
H         -9.54142        7.23657        2.34139
H         -8.46029        5.86477       -0.20203
H         -6.41456        7.62552       -0.39387
H         -7.47957       12.44601       -3.77377
H         -5.82538       14.47276       -3.96758
H         -5.74245       16.77365       -2.85690
H         -6.95795       18.67850       -1.87308
H         -8.99359       19.96371       -1.07167
H        -11.22001       19.49803       -0.00151
H        -13.47923       15.91233        3.76792
H        -16.12260       17.26635        2.27159
