69

C          4.29085      -15.39116        5.35185
C          3.66575      -14.50592        4.57361
C          2.24147      -14.32920        4.49968
C          1.88078      -13.28128        3.74750
C          3.00469      -12.54693        3.18186
S          4.51344      -13.38279        3.54762
C          2.93073      -11.35432        2.56115
C          1.71250      -10.58957        2.37661
C          1.92900       -9.31923        2.01979
C          3.32640       -9.00288        1.81721
S          4.32032      -10.42206        1.98126
C          3.72649       -7.76239        1.52174
C          5.01014       -7.37905        1.05193
O          5.20803       -7.23725       -0.30143
C          6.37076       -6.58594       -0.49866
C          6.95590       -6.28477        0.70853
N          8.14926       -5.52041        0.74825
O          9.19107       -6.10285        0.41604
O          8.02992       -4.30928        0.96186
C          6.14717       -6.89477        1.71879
N          6.32395       -7.01622        3.07286
C          6.96053       -6.19339        3.94518
O          7.37555       -4.99289        3.45952
C          8.02603       -4.33287        4.44575
C          7.99990       -5.08017        5.59380
N          8.56142       -4.64259        6.82097
O          9.72950       -4.23545        6.79344
O          7.83538       -4.71228        7.82302
C          7.28113       -6.27910        5.30146
N          7.04868       -7.26715        6.20521
C          6.06141       -8.23215        6.22294
C          5.86233       -9.21650        7.12063
C          6.73787       -9.46571        8.32296
C          4.73759      -10.20958        6.92479
N          3.84944      -10.13810        8.06635
C          3.16168      -11.19959        8.59829
C          2.29196      -11.15800        9.61307
C          1.59086      -12.32627       10.02615
O          2.09149      -13.60907        9.90672
C          1.15277      -14.47987       10.35503
C          0.02204      -13.80381       10.74435
N         -1.19184      -14.42834       11.16680
O         -1.21214      -15.66597       11.18882
O         -2.14406      -13.68648       11.44819
C          0.31790      -12.42545       10.58742
N         -0.49425      -11.38234       10.87196
H          3.74104      -16.06083        6.00332
H          5.37407      -15.45616        5.37403
H          1.54405      -14.97064        5.02000
H          0.84795      -12.99599        3.60624
H          0.72174      -10.98738        2.54390
H          1.13672       -8.60011        1.85873
H          2.98508       -6.96855        1.48034
H          6.62990       -6.38475       -1.52769
H          5.95249       -7.87356        3.48148
H          8.42374       -3.36320        4.17953
H          7.56360       -7.24718        7.08727
H          5.36243       -8.14013        5.40093
H          7.37440      -10.33896        8.14903
H          6.13914       -9.65370        9.22034
H          7.38508       -8.61808        8.56474
H          5.16394      -11.21369        6.81722
H          4.16406       -9.99887        6.01465
H          3.55955       -9.20885        8.35749
H          3.38017      -12.14536        8.09852
H          2.07399      -10.22210       10.11332
H          1.42262      -15.52645       10.30894
H         -1.45453      -11.53126       11.18734
H         -0.32743      -10.44831       10.50863
