86

C         -1.37915       -2.95263       -1.42170
C         -0.07787       -2.58193       -1.10262
C          0.01223       -1.18210       -0.94740
C         -1.20544       -0.57303       -1.15606
S         -2.45605       -1.60169       -1.52951
C         -1.05891        0.81405       -0.96503
C          0.24554        1.09244       -0.63559
C          1.00764       -0.15906       -0.61821
C          2.32079       -0.33298       -0.37223
C          3.17543        0.75944       -0.07884
N          3.88085        1.65545        0.15771
C          2.92210       -1.62066       -0.41544
N          3.41411       -2.67130       -0.45594
C          0.43093        2.47523       -0.39981
C         -0.75796        3.20088       -0.57819
S         -2.06828        2.12057       -0.99486
C         -1.02973        4.65422       -0.41111
C         -1.97438        5.39839       -1.17188
C         -2.22531        6.80347       -0.94513
N         -3.14803        7.45900       -1.68608
C         -3.81088        6.78044       -2.64386
C         -3.57705        5.44903       -2.86489
N         -2.66101        4.76554       -2.14843
F         -4.26067        4.78423       -3.80623
F         -4.70546        7.44408       -3.38844
C         -1.53818        7.52391        0.04299
C         -0.56560        6.83393        0.81479
C         -0.30933        5.37273        0.58878
N          0.62658        4.88748        1.42541
S          1.15750        6.13100        2.37129
N          0.22035        7.34777        1.77857
C         -1.75827        8.93682        0.29973
O         -1.59472        9.33470        1.60249
C         -1.80018       10.67084        1.57001
C         -2.13364       11.02726        0.27287
N         -2.10209        9.91250       -0.52423
C         -2.41986       12.36826       -0.00474
C         -2.33661       13.30554        1.03089
C         -1.98280       12.87658        2.29731
C         -1.70563       11.56381        2.61773
O         -1.97080       13.94773        3.12053
C         -2.32869       15.01649        2.31924
N         -2.54626       14.65712        1.05763
C         -2.44496       16.31178        2.87997
C         -2.76096       17.38052        2.13440
C         -2.94589       18.75355        2.64865
C         -3.82811       19.66128        2.02768
C         -4.02022       21.00397        2.52430
N         -4.87745       21.82450        1.87934
C         -5.54996       21.36410        0.80713
C         -5.36451       20.08885        0.33932
N         -4.50896       19.23201        0.93823
F         -6.02741       19.66711       -0.74607
F         -6.40356       22.19864        0.19833
C         -3.33248       21.50201        3.66043
C         -2.40173       20.61979        4.28439
C         -2.20993       19.22120        3.77475
N         -1.29841       18.53754        4.49073
S         -0.73286       19.53397        5.67490
N         -1.62230       20.88263        5.34953
C         -3.52542       22.85215        4.24726
C         -2.61209       23.67586        4.92082
C         -3.21563       24.86727        5.37580
C         -4.54845       24.90913        5.04683
S         -5.10781       23.59431        4.21975
C         -5.10897       26.10226        5.53702
C         -4.12489       26.82678        6.17341
C         -2.86235       26.08471        6.10640
C         -1.65943       26.44399        6.58838
C         -1.46523       27.68448        7.25804
N         -1.31252       28.69050        7.81035
C         -0.51374       25.61434        6.44698
N          0.42526       24.94131        6.33061
C         -4.62862       28.04190        6.68098
C         -5.98650       28.15814        6.40594
S         -6.61697       26.80014        5.53774
H         -1.76304       -3.94854       -1.59715
H          0.71843       -3.30793       -0.99454
H          1.36334        2.94071       -0.10121
H         -2.69892       12.67795       -1.00563
H         -1.43017       11.25688        3.61830
H         -2.28294       16.36798        3.94911
H         -2.94763       17.25058        1.06730
H         -1.57677       23.39817        5.07791
H         -4.07892       28.80688        7.21419
H         -6.65059       28.97095        6.66614
