95

C         -1.81647        0.52155        8.02534
C         -2.27124        1.77002        8.43102
C         -2.21448        2.68684        7.35855
C         -1.71444        2.10386        6.21368
S         -1.32629        0.49351        6.36358
C         -1.68240        3.07083        5.18502
C         -2.17637        4.26016        5.67021
C         -2.52695        4.08968        7.08572
C         -3.01144        5.00976        7.94745
C         -3.25378        6.34836        7.54514
N         -3.44848        7.44456        7.21632
C         -3.29204        4.68859        9.30700
N         -3.51877        4.43251       10.41396
C         -2.19918        5.25607        4.66454
C         -1.72986        4.76663        3.43650
S         -1.17402        3.12291        3.60671
C         -1.63055        5.48512        2.16976
C         -1.74068        5.03580        0.86372
C         -2.02747        3.65884        0.42804
O         -2.77338        2.88276        1.00349
C         -1.40441        3.36494       -0.86617
C         -1.20500        4.42048       -1.84440
C         -0.59796        3.95464       -2.99871
S         -0.29441        2.26489       -2.89129
C         -0.96830        2.12848       -1.31567
C         -0.96600        0.77366       -0.66243
F         -1.42265        0.77872        0.60979
F         -1.72307       -0.11575       -1.35404
F          0.29093        0.25672       -0.60546
C         -0.15382        4.67067       -4.24110
F         -0.42121        5.99453       -4.22972
F          1.18980        4.55589       -4.41550
F         -0.73889        4.15568       -5.35214
C         -1.63487        5.80011       -1.56124
O         -2.11972        6.54523       -2.39858
C         -1.54740        6.10989       -0.12295
C         -1.31284        7.35663        0.45921
S         -1.25371        7.15954        2.17673
C         -1.04507        8.70175       -0.12876
C         -0.41452        8.93092       -1.37086
F          0.06314        7.87527       -2.05290
C         -0.17572       10.21473       -1.95321
F          0.36436       10.20402       -3.18433
C         -0.46146       11.45702       -1.33857
C         -1.04084       11.27197       -0.05451
C         -1.35094        9.92860        0.52904
N         -1.93181       10.14651        1.72636
N         -1.87372       11.47203        1.86623
N         -1.39228       12.19789        0.85865
C         -2.33263       12.12187        3.07085
C         -0.17362       12.82045       -1.88319
C         -0.94722       13.88883       -1.58473
C         -0.66685       15.21937       -2.06785
C          0.39732       15.49617       -3.03683
C          1.25915       14.58147       -3.47079
S          1.26994       12.93686       -2.89770
C          0.32117       16.87205       -3.34300
C         -0.69164       17.44777       -2.61592
C         -0.82367       18.82908       -2.83150
C          0.13064       19.25197       -3.74722
S          1.14638       17.95727       -4.30781
C         -1.29488       16.40518       -1.81971
C         -2.41437       16.62730       -0.94602
C         -2.37358       16.40515        0.37714
C         -3.51518       16.61309        1.20208
C         -4.80509       17.02514        0.85942
C         -5.64934       17.07419        1.98070
C         -4.98762       16.71548        3.13164
S         -3.39087       16.31560        2.91935
C         -5.89333       16.78147        4.21040
C         -7.12594       17.18070        3.73449
C         -7.04096       17.39013        2.28919
C         -8.00932       17.77555        1.43679
C         -9.32668       18.04696        1.88769
N        -10.40596       18.26898        2.25181
C         -7.76800       17.93025        0.04152
N         -7.56228       18.05234       -1.09365
C         -8.08248       17.25984        4.76680
C         -7.51042       16.91093        5.98411
S         -5.83354       16.49755        5.84712
H         -1.74495       -0.38161        8.61710
H         -2.61411        1.95927        9.44093
H         -2.55212        6.27330        4.78924
H         -3.29900       12.58503        2.85919
H         -1.59940       12.88159        3.35586
H         -2.42780       11.38285        3.86966
H         -1.83268       13.79116       -0.96527
H          2.02640       14.85141       -4.18923
H         -1.54165       19.48930       -2.36135
H          0.29683       20.25454       -4.11822
H         -3.30049       17.01111       -1.44353
H         -1.45243       16.05098        0.83814
H         -5.09256       17.25901       -0.15702
H         -9.12366       17.54376        4.67491
H         -7.98760       16.87411        6.95420
