72

C         -1.36639        1.97499        3.23648
N         -0.43099        2.31628        4.12202
O         -0.71076        1.57143        5.25089
C         -1.80957        0.78658        5.03582
C         -2.20830       -0.05540        6.13153
O         -1.64445       -0.11556        7.22286
C         -2.26819        1.01376        3.75087
C         -3.43747        0.40130        3.04118
C         -3.78906        0.69833        1.72451
C         -4.93554       -0.03115        1.33369
C         -5.41472       -0.81808        2.35620
S         -4.52009       -0.74974        3.74529
C         -6.59164       -1.46877        1.92997
C         -6.84635       -1.09779        0.63145
C         -5.79818       -0.19395        0.16638
C         -5.64704        0.34535       -1.05722
C         -6.55063        0.06947       -2.11261
N         -7.28932       -0.13965       -2.98588
C         -4.56501        1.22008       -1.34450
N         -3.68237        1.94603       -1.52991
C         -8.04021       -1.66821        0.15631
C         -8.69346       -2.41407        1.14455
S         -7.71556       -2.49844        2.59329
C         -9.94765       -3.10745        1.10858
C        -11.04313       -2.67696        0.45797
C        -12.25678       -3.45226        0.28817
C        -13.06757       -2.97569       -0.67317
C        -12.54619       -1.78555       -1.31868
S        -11.21902       -1.14211       -0.35159
C        -12.86612       -1.30249       -2.53339
C        -13.80937       -1.83991       -3.49582
C        -13.54818       -1.45870       -4.76018
C        -12.37343       -0.60922       -4.86557
S        -11.97480        0.00681       -3.28419
C        -11.64445       -0.45175       -5.98604
C        -10.36814        0.20192       -6.04862
C         -9.84184        1.26635       -5.31146
C         -8.48962        1.49956       -5.60784
C         -8.03663        0.67824       -6.61355
S         -9.17521       -0.38110       -7.19951
C         -6.67745        0.97766       -6.85684
C         -6.27868        1.96152       -5.97683
C         -7.41166        2.37152       -5.15550
C         -7.46119        3.34491       -4.22548
C         -6.33855        4.16622       -3.93644
N         -5.43794        4.86133       -3.70091
C         -8.64858        3.63744       -3.50034
N         -9.60366        3.90054       -2.89596
C         -4.91587        2.27697       -6.12238
C         -4.35447        1.56084       -7.17212
S         -5.50139        0.51021       -7.93637
C         -2.94486        1.70587       -7.63233
C         -1.83090        2.04775       -6.89405
O         -0.75483        2.11441       -7.73218
N         -1.13916        1.78109       -9.01816
C         -2.44544        1.51811       -8.93778
C         -1.56657        2.25700       -5.49906
O         -2.37380        2.11535       -4.58644
H         -1.33907        2.44600        2.26334
H         -3.08337       -0.69374        5.97326
H         -3.24637        1.40222        1.10427
H         -8.45203       -1.52756       -0.83515
H         -9.98594       -4.06971        1.61420
H        -12.45348       -4.35668        0.84671
H        -13.98799       -3.45271       -0.97667
H        -14.60717       -2.51664       -3.22620
H        -14.10540       -1.79531       -5.62374
H        -11.97715       -0.95601       -6.89094
H        -10.40833        1.80107       -4.56257
H         -4.37568        3.01203       -5.54015
H         -2.97465        1.24247       -9.83985
H         -0.52520        2.53556       -5.26083
