109

C         13.20251       -9.04493        3.17183
C         12.59233       -7.95656        2.69862
C         12.94168       -6.59732        3.01147
C         12.10855       -5.69676        2.47045
C         11.02447       -6.28628        1.69830
S         11.23051       -8.04077        1.62154
C          9.97274       -5.63138        1.16872
C          9.71058       -4.20586        1.25786
C          8.49101       -3.84932        0.82869
C          7.69257       -4.96465        0.36858
S          8.64366       -6.42959        0.32915
C          6.38761       -4.87841        0.06643
C          5.59690       -6.00746       -0.29927
S          4.82707       -6.92535        0.92068
C          4.10525       -8.02588       -0.19738
C          4.42164       -7.64591       -1.50039
C          5.31673       -6.51435       -1.55307
O          5.85108       -5.87798       -2.63692
C          5.86695       -6.62939       -3.85176
S          4.21991       -7.08925       -4.42008
S          3.82377       -8.45808       -2.96088
C          3.30477       -9.16066        0.34317
C          2.54846       -9.03604        1.53050
C          1.84650      -10.13049        2.03443
C          1.82908      -11.34509        1.32355
C          2.55030      -11.49425        0.15495
C          3.30484      -10.41282       -0.30931
C          0.98648      -12.29440        2.00554
C          0.47474      -11.70622        3.17794
C          1.02287      -10.26738        3.33152
C         -0.12503       -9.23618        3.45525
C         -1.09152       -9.17415        2.27215
C          1.95185      -10.26341        4.58507
C          2.59802       -8.93618        4.97202
C         -0.38252      -12.41736        4.01459
C         -0.72117      -13.73706        3.67516
C         -0.21281      -14.30120        2.48446
C          0.64760      -13.58728        1.65024
C         -1.64148      -14.49151        4.54269
C         -1.59176      -15.82346        4.67998
C         -2.51604      -16.58725        5.49246
C         -2.50534      -17.92128        5.65123
C         -3.49198      -18.65073        6.41103
C         -3.39984      -19.98053        6.27108
C         -2.32608      -20.40607        5.38926
S         -1.34776      -19.01382        4.93021
C         -2.13895      -21.64606        4.89848
C         -2.99721      -22.79704        5.11721
C         -2.80312      -23.78651        4.23158
C         -1.77367      -23.48189        3.26261
S         -0.86305      -22.07425        3.76174
C         -1.59906      -24.14462        2.10883
C         -0.67659      -23.79291        1.04084
C         -0.68263      -22.65944        0.31535
C          0.25350      -22.17753       -0.73414
C          1.09255      -22.92529       -1.49779
C          1.88757      -22.37633       -2.54365
N          2.53879      -21.94394       -3.40352
C          1.20796      -24.34097       -1.36688
N          1.30356      -25.49042       -1.27202
C         -0.02317      -20.71173       -0.90712
C         -1.15943      -20.38101       -0.16961
C         -1.67877      -21.55073        0.54126
O         -2.74345      -21.57100        1.12458
C         -1.74002      -19.11671       -0.13206
C         -1.14996      -18.10289       -0.91411
C          0.00975      -18.40996       -1.64127
C          0.60137      -19.70164       -1.63246
S          0.57190      -17.03098       -2.51915
C         -0.71234      -16.08028       -1.97625
C         -1.55271      -16.73907       -1.11959
Br        -0.95894      -14.29826       -2.49698
H         14.04059       -8.97677        3.85574
H         12.86815      -10.04099        2.89652
H         13.78694       -6.34250        3.63536
H         12.21948       -4.63275        2.62058
H         10.41765       -3.49765        1.66554
H          8.11537       -2.83545        0.85750
H          5.87346       -3.92401        0.13116
H          6.53122       -7.49838       -3.76025
H          6.30689       -5.98180       -4.61659
H          2.51243       -8.09187        2.06324
H          2.55007      -12.43142       -0.39166
H          3.90563      -10.58051       -1.19809
H          0.28652       -8.22960        3.59527
H         -0.71368       -9.45601        4.35598
H         -0.59676       -8.79843        1.37158
H         -1.91468       -8.48927        2.50342
H         -1.53188      -10.14948        2.04560
H          2.75580      -10.99965        4.44610
H          1.38537      -10.60614        5.46213
H          3.03708       -8.40960        4.12549
H          3.41061       -9.11801        5.68450
H          1.87812       -8.27137        5.45834
H         -0.76956      -11.95988        4.92000
H         -0.48758      -15.31028        2.18676
H          1.02965      -14.04436        0.74410
H         -2.38430      -13.90312        5.07822
H         -0.82525      -16.38857        4.15139
H         -3.30414      -16.01264        5.97591
H         -4.24919      -18.15847        7.00525
H         -4.08194      -20.67068        6.74587
H         -3.76279      -22.82904        5.87795
H         -3.39408      -24.69039        4.19404
H         -2.20456      -25.02557        1.90342
H          0.05467      -24.57678        0.87864
H         -2.62949      -18.93256        0.46598
H          1.50783      -19.85240       -2.20595
H         -2.42838      -16.28962       -0.66584
