126

C          2.03106       -1.25083       -2.88155
C          2.60254       -0.32858       -3.76325
F          3.44335        0.59362       -3.27510
C          2.34410       -0.37308       -5.14012
F          2.93521        0.50951       -5.95621
C          1.51721       -1.34870       -5.68324
C          0.96694       -2.26269       -4.80091
C          1.19494       -2.22417       -3.40696
C          0.51119       -3.39353       -2.80149
C          0.05590       -3.52920       -1.53484
C          0.29243       -2.54275       -0.53613
N          0.50332       -1.72530        0.25958
C         -0.78268       -4.62198       -1.15382
N         -1.49601       -5.48298       -0.85118
C          0.23150       -4.31016       -3.91096
C          0.23171       -3.49362       -5.16781
O         -0.15920       -3.80409       -6.27137
C          0.45765       -5.62690       -4.05857
C          1.23203       -6.46994       -3.13045
C          0.90511       -7.82137       -2.97516
C          1.78013       -8.63368       -2.26000
C          2.96427       -8.11870       -1.68883
C          3.28402       -6.78413       -1.81441
C          2.42667       -5.97201       -2.55531
C          3.70968       -9.18900       -1.07090
C          3.00181      -10.39537       -1.22684
C          1.69579      -10.14184       -1.99573
C          0.44690      -10.48859       -1.13774
C          0.25654       -9.66445        0.13808
C          1.67058      -10.95690       -3.32053
C          2.77204      -10.62318       -4.33001
C          3.51831      -11.59771       -0.75290
C          4.74943      -11.59765       -0.08240
C          5.45505      -10.37588        0.04286
C          4.94317       -9.17134       -0.44872
C          5.32602      -12.81767        0.48842
O          6.68803      -12.82383        0.47518
C          7.15071      -13.95692        1.08441
C          6.03934      -14.68692        1.49169
C          4.85863      -13.97049        1.10528
C          3.46478      -14.35203        1.40780
F          2.53188      -13.44539        1.03086
F          3.12482      -15.51384        0.78580
F          3.27343      -14.55309        2.73742
O          6.20008      -15.80044        2.25063
C          5.27035      -16.84632        2.02954
C          8.54292      -14.18796        1.24366
C          9.05256      -15.42561        1.32797
C         10.47360      -15.70279        1.55068
C         11.02574      -16.88479        1.03183
C         12.34522      -17.18414        1.33399
C         13.10914      -16.31821        2.14239
C         12.58174      -15.14463        2.64433
C         11.25485      -14.84801        2.35604
C         14.39297      -16.91354        2.40008
C         14.45954      -18.17550        1.77721
C         13.18621      -18.40704        0.94414
C         12.48794      -19.75083        1.28878
C         11.99478      -19.89667        2.72691
C         13.51864      -18.38137       -0.57787
C         14.12330      -17.08065       -1.11301
C         15.55435      -19.00493        1.98692
C         16.59360      -18.55344        2.82259
C         16.50118      -17.28549        3.43005
C         15.42040      -16.44460        3.19279
C         17.69138      -19.46808        3.16298
C         18.96911      -19.20813        3.48335
C         19.71624      -20.33746        4.13132
O         19.42592      -21.51492        4.16252
C         20.86555      -19.72331        4.80592
C         20.89391      -18.33356        4.57881
C         21.89962      -17.59133        5.18523
C         22.86851      -18.25983        5.94149
C         22.82691      -19.64505        6.12169
C         21.80635      -20.40031        5.56613
F         23.78327      -20.25610        6.83216
F         23.86654      -17.54799        6.48208
C         19.81217      -18.00051        3.59981
C         19.80351      -16.89437        2.81430
C         19.02880      -16.79339        1.62585
N         18.45921      -16.67317        0.61975
C         20.62252      -15.75045        3.06830
N         21.26061      -14.81308        3.29928
H          2.29813       -1.19599       -1.83185
H          1.35785       -1.41735       -6.75349
H          0.27588       -6.09672       -5.02697
H          0.01340       -8.24168       -3.43155
H          4.19917       -6.38054       -1.39548
H          2.74530       -4.94756       -2.72495
H          0.47632      -11.54876       -0.85518
H         -0.45748      -10.35691       -1.74622
H          1.10915       -9.75663        0.81686
H         -0.63373      -10.01172        0.67359
H          0.10182       -8.60360       -0.08357
H          0.70666      -10.80937       -3.82431
H          1.73525      -12.02922       -3.09340
H          2.68017       -9.59803       -4.70201
H          2.69632      -11.28839       -5.19663
H          3.77197      -10.74831       -3.90457
H          2.96687      -12.51506       -0.92440
H          6.42786      -10.35698        0.53343
H          5.51357       -8.25475       -0.34467
H          5.71964      -17.77347        2.39926
H          5.04753      -16.98659        0.96717
H          4.36259      -16.67475        2.61225
H          9.17948      -13.30921        1.27676
H          8.41880      -16.30384        1.24288
H         10.43099      -17.56235        0.42688
H         13.16392      -14.48575        3.27787
H         10.82469      -13.95345        2.79936
H         13.17235      -20.58345        1.07903
H         11.62346      -19.89754        0.62709
H         12.79579      -19.73469        3.45305
H         11.60347      -20.90788        2.88320
H         11.18095      -19.19844        2.94452
H         12.60606      -18.57890       -1.15659
H         14.21416      -19.19823       -0.81081
H         13.38529      -16.27185       -1.11744
H         14.45693      -17.22122       -2.14629
H         14.99035      -16.75557       -0.53141
H         15.58546      -19.99300        1.53547
H         17.25944      -16.93551        4.12156
H         15.37497      -15.46544        3.65530
H         17.34506      -20.50324        3.24870
H         22.00026      -16.51689        5.09664
H         21.75913      -21.47403        5.70901
