107

C         -2.45396        1.79938        2.13606
C         -3.09781        1.84478        0.89535
C         -3.98246        0.83384        0.50807
C         -4.26003       -0.23154        1.36378
C         -3.66940       -0.25213        2.62198
C         -2.73861        0.75587        3.00894
C         -2.18014        0.41068        4.36387
C         -1.49459        1.21015        5.21283
C         -1.15787        2.55451        4.89951
N         -0.87614        3.65020        4.64862
C         -1.10104        0.78080        6.51353
N         -0.76635        0.41560        7.56311
C         -2.63538       -0.98152        4.62266
C         -3.82408       -1.20270        3.75945
C         -4.93827       -1.91373        4.06069
C         -5.14217       -2.45431        5.36441
N         -5.34536       -2.84662        6.43804
C         -6.02052       -2.07835        3.15412
N         -6.89141       -2.23968        2.39755
C         -1.86861       -1.93194        5.19990
C         -2.04672       -3.36313        5.13602
C         -2.38545       -4.03358        4.01104
C         -2.46796       -5.44667        4.33508
C         -2.03192       -5.57128        5.70770
C         -1.75954       -4.34976        6.17961
F         -1.86724       -6.72359        6.36911
C         -2.90768       -6.40024        3.50873
C         -3.10947       -7.79851        3.84115
C         -3.62153       -8.40627        2.75108
C         -3.76591       -7.41851        1.68368
C         -3.33239       -6.24100        2.13401
F         -3.28154       -5.10924        1.42085
C         -4.03190       -9.77973        2.73971
C         -4.08865      -10.50503        1.61447
C         -4.53477      -11.90076        1.52959
C         -3.99259      -12.78582        0.57479
C         -4.43792      -14.14381        0.47342
N         -3.86357      -14.95525       -0.44861
C         -2.89542      -14.47093       -1.26829
C         -2.47454      -13.17123       -1.17082
N         -3.01853      -12.32682       -0.25394
C         -1.44315      -12.62571       -2.00325
N         -0.60177      -12.20956       -2.68703
C         -2.36419      -15.39636       -2.22496
N         -1.92582      -16.12981       -3.01007
C         -5.45671      -14.66511        1.31026
C         -6.03350      -13.79339        2.27650
C         -5.56813      -12.38045        2.38449
N         -6.23968      -11.69098        3.32474
S         -7.31486      -12.71927        4.03386
N         -7.01032      -14.08140        3.15565
C         -5.94963      -16.04592        1.24309
C         -6.09386      -16.73810        0.08901
C         -6.56713      -18.07230        0.41946
C         -6.76387      -18.08930        1.85045
C         -6.39476      -16.90530        2.34465
F         -7.25026      -19.11368        2.56191
C         -6.74196      -19.07539       -0.44579
C         -7.16818      -20.42380       -0.11593
C         -7.22660      -21.12965       -1.26362
C         -6.79492      -20.26744       -2.36424
C         -6.52200      -19.05551       -1.87525
F         -6.09715      -18.00547       -2.58858
C         -7.58025      -22.52011       -1.30163
C         -8.15349      -23.09515       -2.36684
C         -8.51554      -24.49080       -2.40292
C         -7.69698      -25.55471       -2.27661
C         -8.16233      -26.94281       -1.97534
C         -9.31458      -27.53236       -2.38164
C        -10.25612      -26.88433       -3.23396
N        -11.03401      -26.35531       -3.91333
C         -9.68889      -28.84988       -2.00856
N        -10.01846      -29.92355       -1.70289
C         -7.05837      -27.55693       -1.15194
C         -5.95859      -26.65369       -1.09231
C         -4.85261      -26.93453       -0.29461
C         -4.78777      -28.15867        0.36950
C         -5.83020      -29.07936        0.25708
C         -6.97588      -28.77522       -0.48436
C         -6.23494      -25.50551       -2.00669
C         -5.29922      -24.75457       -2.64021
C         -3.91637      -24.78398       -2.30214
N         -2.79221      -24.78516       -2.01280
C         -5.61327      -23.94958       -3.77575
N         -5.84168      -23.31807       -4.72233
H         -1.74252        2.58467        2.36364
H         -2.89680        2.66989        0.21428
H         -4.45729        0.87708       -0.47052
H         -4.92549       -1.01308        1.01237
H         -0.93833       -1.67442        5.70318
H         -2.59130       -3.61495        3.03939
H         -1.37712       -4.12341        7.16184
H         -2.90912       -8.25312        4.79920
H         -4.15176       -7.61909        0.69811
H         -4.30378      -10.19756        3.70672
H         -3.75235      -10.06892        0.67514
H         -5.87629      -16.39541       -0.91026
H         -6.44284      -16.62378        3.38398
H         -7.40002      -20.78353        0.87453
H         -6.70272      -20.56693       -3.39590
H         -7.37811      -23.09765       -0.40107
H         -8.42359      -22.50889       -3.24500
H         -9.59452      -24.59463       -2.48075
H         -4.02748      -26.24269       -0.16430
H         -3.91407      -28.40190        0.97129
H         -5.75570      -30.04039        0.76292
H         -7.75992      -29.52156       -0.50550
