82

C        -10.63290       -4.71459        5.86388
C        -11.36022       -5.87838        5.58140
C        -10.89804       -6.80584        4.64172
C         -9.66723       -6.62115        4.01561
C         -8.90342       -5.51296        4.36035
C         -9.40664       -4.51387        5.23975
C         -8.44001       -3.35275        5.24526
C         -8.38180       -2.33550        6.13523
C         -9.29914       -2.20277        7.21650
N        -10.04192       -2.09325        8.09955
C         -7.34658       -1.35964        6.09655
N         -6.50357       -0.56267        6.04683
C         -7.47771       -3.63990        4.13130
C         -7.53580       -5.10809        3.93950
C         -6.49209       -5.94674        3.73352
C         -5.15008       -5.46445        3.72960
N         -4.06253       -5.06021        3.74853
C         -6.65221       -7.34481        3.54832
N         -6.78916       -8.48173        3.33293
C         -6.96341       -2.72609        3.27115
C         -6.35918       -3.04499        2.00408
O         -6.76193       -4.13091        1.23811
C         -6.04714       -4.16640        0.07250
C         -5.18891       -3.09409        0.04965
C         -5.34600       -2.41540        1.27843
C         -4.56279       -1.28140        1.64992
N         -3.92995       -0.33950        1.87989
C         -6.18689       -5.18206       -0.92227
N         -7.06835       -6.22597       -0.77531
C         -6.94747       -7.03351       -1.87136
C         -7.45253       -8.22281       -2.44195
C         -6.77964       -8.36735       -3.64750
N         -5.90363       -7.31161       -3.80019
C         -6.01758       -6.50491       -2.70098
C         -5.50882       -5.31776       -2.12570
C         -6.83237       -9.33265       -4.68636
C         -7.64807      -10.39523       -4.59620
C         -7.72033      -11.34255       -5.65415
O         -7.50212      -11.00278       -6.96817
C         -7.70724      -12.08648       -7.78284
C         -7.99599      -13.16767       -6.96620
C         -8.02351      -12.69620       -5.62930
C         -8.28896      -13.46542       -4.46121
N         -8.49305      -14.09751       -3.50312
C         -7.58628      -12.04234       -9.20020
C         -7.83224      -10.95383       -9.95987
C         -7.34506      -10.79897      -11.36519
C         -7.34693      -11.73574      -12.34442
C         -7.84438      -13.05383      -12.12826
N         -8.23537      -14.12746      -11.92789
C         -6.90713      -11.47295      -13.67209
N         -6.54075      -11.27258      -14.75441
C         -6.96819       -9.34841      -11.49003
C         -7.46368       -8.64372      -10.35551
C         -7.17663       -7.29368      -10.18157
C         -6.44259       -6.62533      -11.16245
C         -5.97533       -7.30729      -12.28903
C         -6.21832       -8.67462      -12.44899
C         -8.24189       -9.59727       -9.50741
C         -9.28045       -9.27939       -8.69537
C         -9.61729       -7.93846       -8.35723
N         -9.88430       -6.84574       -8.07144
C        -10.18267      -10.26923       -8.20373
N        -10.93650      -11.06837       -7.82715
H        -11.06690       -4.00854        6.56261
H        -12.30961       -6.05664        6.08423
H        -11.50016       -7.68048        4.40103
H         -9.34660       -7.34050        3.26911
H         -7.07468       -1.66257        3.46674
H         -4.50134       -2.85062       -0.75001
H         -7.70375       -6.39684       -0.00744
H         -8.20544       -8.87930       -2.03019
H         -5.27212       -7.12197       -4.56874
H         -4.75166       -4.65955       -2.52922
H         -6.19520       -9.20657       -5.56007
H         -8.27514      -10.55756       -3.72469
H         -8.19250      -14.17784       -7.30264
H         -7.18188      -12.95154       -9.63350
H         -7.48931       -6.73380       -9.30663
H         -6.22571       -5.56490      -11.04611
H         -5.40133       -6.76989      -13.04220
H         -5.79208       -9.16126      -13.31880
