94

C          0.90262       -3.06015        1.88964
C          0.90411       -2.71148        3.24417
C         -0.21788       -2.94481        4.04997
C         -1.35951       -3.55138        3.52520
C         -1.35371       -3.93201        2.19083
C         -0.22564       -3.67125        1.35799
C         -0.57460       -4.05804       -0.05201
C          0.26767       -4.32911       -1.07383
C          1.68402       -4.26274       -0.93723
N          2.83732       -4.21058       -0.82534
C         -0.21191       -4.77925       -2.33797
N         -0.61515       -5.12572       -3.36817
C         -2.05498       -4.23038       -0.03791
C         -2.39626       -4.59587        1.35586
C         -3.19175       -5.60888        1.77366
C         -3.75444       -6.54984        0.85982
N         -4.15483       -7.37437        0.14805
C         -3.35008       -5.93984        3.14873
N         -3.48243       -6.20698        4.27037
C         -2.88162       -3.71031       -0.97152
C         -4.27047       -3.46236       -0.74757
S         -5.42390       -4.63453       -1.23571
C         -6.77019       -3.76887       -0.59956
C         -6.36414       -2.52669       -0.15720
C         -4.93326       -2.33220       -0.30055
C         -4.28578       -1.11848       -0.02668
C         -5.17588       -0.10774        0.40617
S         -4.50474        1.52108        0.73548
C         -6.58243       -0.30800        0.56750
C         -7.23674       -1.52663        0.29532
C         -8.08315       -4.35711       -0.68021
N         -8.38631       -5.27973       -1.66332
C         -9.70838       -5.59163       -1.56716
C        -10.72570       -6.35652       -2.18288
C        -11.85439       -6.13543       -1.40872
N        -11.53857       -5.26386       -0.38764
C        -10.22010       -4.93835       -0.50028
C         -9.20815       -4.16070        0.10666
C        -13.19475       -6.58690       -1.44135
C        -13.67666       -7.33490       -2.44469
C        -15.03899       -7.76663       -2.46026
S        -15.39084       -9.29320       -3.18442
C        -17.02505       -9.34223       -2.62526
C        -17.35632       -8.08400       -2.13648
C        -16.22616       -7.18116       -2.05625
C        -16.33377       -5.84751       -1.62461
C        -17.64619       -5.47242       -1.26840
S        -17.90610       -3.77903       -0.73812
C        -18.75849       -6.36369       -1.34495
C        -18.66170       -7.70938       -1.77052
C        -17.88173      -10.47462       -2.83499
C        -17.58725      -11.78825       -2.93587
C        -18.57919      -12.78104       -3.45239
C        -19.86855      -12.91894       -3.06769
C        -20.46488      -12.06579       -2.09520
N        -20.93998      -11.34162       -1.31968
C        -20.70710      -13.96783       -3.54628
N        -21.39169      -14.81789       -3.93531
C        -17.79121      -13.68808       -4.34604
C        -16.40592      -13.48258       -4.08964
C        -15.44501      -14.13551       -4.85269
C        -15.86312      -15.02587       -5.84515
C        -17.22484      -15.23985       -6.08766
C        -18.19686      -14.55958       -5.35035
C        -16.27930      -12.48391       -2.98127
C        -15.29642      -12.45883       -2.04724
C        -14.11933      -13.25193       -2.15161
N        -13.15983      -13.89755       -2.24414
C        -15.43785      -11.71253       -0.84185
N        -15.56474      -11.13490        0.15896
H          1.77676       -2.81527        1.29582
H          1.78118       -2.23159        3.67578
H         -0.20244       -2.64052        5.09511
H         -2.22345       -3.69161        4.16712
H         -2.49269       -3.30145       -1.90106
H         -3.22772       -0.93918       -0.16423
H         -5.21929        1.75116        1.84665
H         -7.20419        0.52646        0.89575
H         -8.30903       -1.61813        0.39734
H         -7.75716       -5.66123       -2.35806
H        -10.63765       -6.98275       -3.05952
H        -12.14473       -4.90084        0.33667
H         -9.30533       -3.53759        0.98376
H        -13.83687       -6.30799       -0.61012
H        -13.02314       -7.67252       -3.24483
H        -15.51571       -5.13984       -1.59156
H        -18.82039       -4.04317        0.20586
H        -19.74859       -5.99302       -1.07573
H        -19.53851       -8.34339       -1.81508
H        -18.91710      -10.18263       -2.98997
H        -14.38065      -13.96847       -4.72238
H        -15.12242      -15.55121       -6.44551
H        -17.52894      -15.93047       -6.87220
H        -19.23858      -14.72103       -5.60620
