97

C         -1.26981        1.44828       -4.99589
C         -1.82969        2.67511       -5.34040
F         -1.20122        3.45353       -6.23145
C         -3.02307        3.09257       -4.76858
F         -3.55769        4.27317       -5.10766
C         -3.67303        2.29691       -3.83282
C         -3.11825        1.06618       -3.45764
C         -1.90315        0.62288       -4.05535
C         -1.34949       -0.62748       -3.69989
C         -1.96920       -1.42170       -2.74262
C         -3.14651       -0.93572       -2.16369
C         -3.74199        0.27123       -2.49792
C         -3.67163       -1.87296       -1.17535
O         -4.59377       -1.62092       -0.42808
C         -2.82014       -3.10907       -1.27410
C         -1.66419       -2.76451       -2.15158
C         -0.51602       -3.46791       -2.33189
C          0.55294       -3.02663       -3.16607
N          1.42588       -2.67380       -3.84426
C         -0.26049       -4.70311       -1.67261
N         -0.04777       -5.71151       -1.13890
C         -3.21778       -4.28295       -0.75095
C         -4.43586       -4.53848       -0.00799
C         -4.73335       -3.96332        1.17111
C         -5.99424       -4.28823        1.85109
C         -6.33842       -3.70128        3.02671
C         -7.55173       -4.01621        3.70498
N         -8.54379       -4.27775        4.24681
C         -5.50272       -2.73218        3.65802
N         -4.80555       -1.95102        4.16001
C         -6.85479       -5.27626        1.18423
C         -6.46703       -5.79624        0.00585
O         -5.26944       -5.46901       -0.61678
C         -7.27291       -6.74093       -0.68104
O         -8.14352       -7.62948       -0.04711
C         -7.40859       -7.00164       -2.01758
C         -6.94860       -6.56138       -3.29839
O         -6.14107       -5.68650       -3.55370
N         -7.63672       -7.35897       -4.19114
C         -8.48789       -8.27204       -3.59806
O         -9.21151       -9.08270       -4.14654
C         -8.33088       -8.03402       -2.19737
C         -8.78394       -8.45182       -0.97515
C         -9.69412       -9.48313       -0.62612
C        -10.41080       -9.40030        0.50396
C        -11.31064      -10.44928        0.93366
C        -11.26138      -11.07166        2.12128
C        -12.13601      -12.15435        2.49784
C        -11.89577      -12.64028        3.72315
C        -10.81935      -11.96372        4.42966
S        -10.11683      -10.71917        3.39336
C        -10.39439      -12.23715        5.67928
C        -10.89940      -13.29116        6.54193
C        -10.22503      -13.42611        7.69233
C         -9.13132      -12.49213        7.83294
S         -9.09697      -11.36513        6.49942
C         -8.22349      -12.54023        8.81958
C         -7.06873      -11.66679        8.94347
C         -5.78521      -12.06320        8.98301
C         -4.53231      -11.28140        9.15094
C         -4.34173       -9.95648        8.92070
C         -3.07691       -9.31532        9.04377
N         -2.04727       -8.78169        9.14876
C         -5.38803       -9.08357        8.49678
N         -6.22267       -8.35224        8.16699
C         -3.46042      -12.27181        9.49503
C         -3.97464      -13.56042        9.34192
C         -5.39410      -13.51715        8.97149
O         -6.07942      -14.49571        8.75403
C         -3.25107      -14.72632        9.58055
C         -1.91722      -14.59535       10.02522
C         -1.39352      -13.30609       10.19849
C         -2.14899      -12.13298        9.94007
S          0.23915      -13.36761       10.76245
C          0.23429      -15.05468       10.78734
C         -0.95018      -15.60129       10.37117
Br         1.70500      -16.07454       11.34044
H         -0.33312        1.15693       -5.46435
H         -4.60521        2.65254       -3.40192
H         -0.43916       -0.93504       -4.20264
H         -4.66927        0.56936       -2.01466
H         -2.65803       -5.19916       -0.91217
H         -4.05315       -3.22955        1.59317
H         -7.80300       -5.57506        1.62466
H         -7.52977       -7.28001       -5.18800
H         -9.77260      -10.34856       -1.28004
H        -10.32545       -8.53629        1.16187
H        -12.06889      -10.73866        0.20842
H        -12.90174      -12.53864        1.83822
H        -12.46116      -13.45716        4.14710
H        -11.71932      -13.93963        6.26856
H        -10.44235      -14.18532        8.43145
H         -8.30551      -13.31993        9.57566
H         -7.34899      -10.62051        9.01787
H         -3.71263      -15.70164        9.45016
H         -1.67865      -11.17430       10.12136
H         -1.13827      -16.66716       10.32176
