65

C          5.08988        2.06054       -2.32014
C          5.87737        1.36505       -1.49784
C          7.31249        1.44548       -1.44417
C          7.86390        0.53233       -0.63191
C          6.89357       -0.36300       -0.02044
S          5.25518        0.19423       -0.37323
C          7.17361       -1.52657        0.59570
C          8.49546       -2.09246        0.80422
C          8.47930       -3.41701        1.01653
C          7.14464       -3.97081        0.98209
S          5.94829       -2.70365        1.06915
C          6.86694       -5.26820        0.78010
C          5.55771       -5.82095        0.55121
C          4.75051       -6.30110        1.55944
C          5.05207       -6.30533        2.96014
N          5.31390       -6.31160        4.08810
S          3.28624       -6.90869        0.93819
C          3.65918       -6.46262       -0.68914
C          4.92262       -5.89245       -0.74625
C          5.52692       -5.32190       -1.91758
N          6.03295       -4.85378       -2.84692
C          2.66733       -6.72577       -1.83404
C          1.29130       -6.58505       -1.67490
C          0.58225       -6.05644       -0.54407
N          0.00886       -5.62181        0.36102
S          0.42445       -7.09803       -3.04728
C          1.83607       -7.46697       -3.93406
C          2.97524       -7.20682       -3.17472
C          4.28671       -7.58789       -3.62047
N          5.32212       -7.94005       -3.99407
C          1.76683       -8.08813       -5.33603
C          2.59119       -7.74170       -6.39834
C          3.50594       -6.64322       -6.48919
N          4.22210       -5.73734       -6.56900
S          2.37106       -8.76918       -7.74737
C          1.04674       -9.58695       -7.02397
C          0.80492       -9.09725       -5.75051
C         -0.25669       -9.64207       -4.95033
N         -1.10521      -10.08839       -4.29822
C          0.41682      -10.63570       -7.76494
C         -0.52511      -10.40689       -8.69187
C         -0.99793      -11.39604       -9.63687
C         -1.52574      -10.84383      -10.74195
C         -1.49724       -9.38805      -10.71439
S         -1.20902       -8.84533       -9.06209
C         -1.49168       -8.55996      -11.77549
C         -1.52180       -8.95314      -13.17279
C         -1.17672       -7.96750      -14.01510
C         -0.87789       -6.72734      -13.34445
S         -1.23068       -6.81637      -11.64618
C         -0.35981       -5.63544      -13.91081
H          5.49682        2.76262       -3.03851
H          4.01222        1.92674       -2.31322
H          7.87942        2.15449       -2.03084
H          8.93171        0.42821       -0.50526
H          9.40699       -1.51599        0.73278
H          9.36872       -4.02222        1.12467
H          7.69944       -5.96271        0.67830
H          0.82660      -11.63596       -7.64952
H         -0.85791      -12.45976       -9.50095
H         -1.86543      -11.41676      -11.59324
H         -1.74589       -9.95770      -13.50212
H         -1.09777       -8.08261      -15.08665
H         -0.11815       -5.60070      -14.96638
H         -0.13849       -4.74946      -13.32216
