88

C          1.43246       -1.00935       -4.10138
C          1.16961       -0.65109       -2.78961
C          1.01489       -1.61035       -1.72277
N          0.77418       -1.14369       -0.47285
C          0.67894        0.20110       -0.27376
C          0.82070        1.09279       -1.31018
N          1.06936        0.66919       -2.57556
C          0.71378        2.51046       -1.13868
N          0.62213        3.65743       -0.98378
C          0.41809        0.61635        1.07222
N          0.20413        0.97002        2.15666
C          1.11707       -3.00824       -1.95586
C          1.38015       -3.40967       -3.30841
C          1.54798       -2.37996       -4.38535
N          1.80811       -2.89260       -5.59624
S          1.84094       -4.53801       -5.41529
N          1.49653       -4.65459       -3.80399
C          0.96051       -4.02176       -0.88308
S          1.88864       -5.46908       -0.90631
C          1.14479       -6.11448        0.49585
C          0.29436       -5.17713        1.05851
C          0.18925       -3.98963        0.26966
C         -0.40762       -5.37337        2.29989
N         -0.96864       -5.58628        3.28818
C          1.50965       -7.43326        0.88897
C          0.64495       -8.22096        1.54122
C          0.95446       -9.53602        1.98828
N          0.84741       -9.93660        3.31906
C          0.42534       -9.10832        4.43613
C          1.48316       -8.97245        5.52316
C          1.13084      -11.30406        3.45845
O          1.08318      -12.00692        4.44636
C          1.47524      -11.70639        2.07922
C          1.32397      -10.56702        1.22995
C          1.60816      -10.97594       -0.15528
O          1.54063      -10.27993       -1.14711
N          1.94900      -12.33929       -0.00727
C          2.26415      -13.20058       -1.13529
C          3.74752      -13.22292       -1.47372
C          1.85014      -12.74060        1.32782
C          2.10651      -14.07129        1.78059
C          1.45698      -14.60756        2.82188
C          1.68504      -15.93632        3.22479
S          1.47421      -16.33679        4.86306
C          1.88003      -17.98880        4.60807
C          2.17784      -18.20956        3.27208
C          2.04042      -17.03705        2.47996
C          2.57596      -19.46834        2.71475
N          2.91661      -20.46036        2.21922
C          1.92038      -18.89513        5.70516
C          1.13481      -18.75404        6.78684
C          1.12897      -19.64277        7.95826
C          0.79632      -19.16875        9.24930
C          0.78262      -20.04817       10.38545
N          0.48388      -19.59807       11.61442
C          0.19090      -18.27783       11.75580
C          0.19370      -17.41963       10.68156
N          0.49386      -17.85733        9.42757
C         -0.10128      -16.02300       10.80936
N         -0.34622      -14.89614       10.94699
C         -0.10976      -17.84799       13.09115
N         -0.35795      -17.48566       14.16160
C          1.07775      -21.40325       10.29128
C          1.40272      -21.91751        9.02095
C          1.42484      -21.03037        7.82098
N          1.72589      -21.70577        6.69791
S          2.00179      -23.27940        7.12161
N          1.71463      -23.19307        8.75244
H          1.54387       -0.26944       -4.88635
H         -0.44098       -3.15538        0.55729
H          2.50327       -7.80241        0.63183
H         -0.36847       -7.91067        1.77347
H         -0.48107       -9.55360        4.86111
H          0.17110       -8.10892        4.07841
H          1.66564       -9.92441        6.03096
H          1.15447       -8.25260        6.28091
H          2.43341       -8.62282        5.10793
H          1.70460      -12.84813       -2.00912
H          1.91867      -14.21792       -0.92149
H          4.13901      -12.21311       -1.62928
H          3.92133      -13.79969       -2.38926
H          4.32601      -13.69079       -0.67078
H          2.85820      -14.64050        1.24325
H          0.73340      -14.04062        3.40088
H          2.19468      -16.99978        1.40805
H          2.62357      -19.71850        5.62242
H          0.44260      -17.91647        6.86880
H          1.05909      -22.05013       11.16031
