103

C          3.80502        3.68816       -4.93348
C          3.34899        4.78828       -5.61299
S          3.90380        4.76132       -7.25546
C          4.71953        3.28498       -7.02617
Cl         5.58507        2.57752       -8.32415
C          4.56926        2.82373       -5.75357
C          5.01425        1.64666       -5.07271
O          5.62261        0.70747       -5.54365
C          4.48169        1.85464       -3.64994
C          3.70710        3.15188       -3.58989
C          3.08480        3.73202       -2.53528
C          2.39422        4.97101       -2.65804
N          1.82936        5.97771       -2.76172
C          3.06803        3.17175       -1.22598
N          3.05904        2.72331       -0.15770
C          4.68489        0.93187       -2.69459
C          5.45569       -0.28380       -2.80459
C          4.95249       -1.50231       -2.52080
C          6.01952       -2.50039       -2.66424
C          7.19779       -1.74516       -3.12020
C          6.85464       -0.44689       -3.16884
C          8.49037       -2.21002       -3.46883
N          9.56736       -2.54501       -3.73107
C          5.89193       -3.81794       -2.39298
C          6.94879       -4.82112       -2.50647
C          6.45682       -6.03728       -2.17510
C          5.05916       -5.84528       -1.80582
C          4.71298       -4.55336       -1.92541
C          3.41434       -4.07342       -1.63701
N          2.34617       -3.69127       -1.39641
C          7.23999       -7.25003       -2.19583
N          7.14049       -8.31317       -1.28204
C          6.28067       -8.41466       -0.12123
C          6.59644       -7.38133        0.94687
C          8.07322       -9.33807       -1.57042
O          8.29538      -10.37821       -0.98795
C          8.75485       -8.82506       -2.76459
C          8.19353       -7.54591       -3.08892
C          8.88940       -7.04420       -4.29161
O          8.70039       -5.99166       -4.86423
N          9.79371       -8.08125       -4.58444
C         10.74364       -8.00661       -5.67904
C         12.09646       -7.46559       -5.24190
C          9.70116       -9.11249       -3.65450
C         10.51358      -10.28262       -3.72648
C         11.30366      -10.69653       -2.73194
C         12.14780      -11.82403       -2.87964
S         13.63435      -11.85301       -2.00108
C         12.05665      -12.97350       -3.61921
C         11.12392      -13.56997       -4.54346
O         10.08919      -13.08612       -4.97166
N         11.67915      -14.79464       -4.87017
C         11.05815      -15.68679       -5.82585
C         11.54675      -15.41602       -7.24012
C         12.90262      -15.02713       -4.26474
O         13.64025      -15.99313       -4.36963
C         13.14305      -13.85585       -3.45585
C         14.11442      -13.41248       -2.59448
C         15.34259      -14.01800       -2.20397
C         15.92045      -13.76010       -1.01861
C         17.15707      -14.36236       -0.58728
C         17.38287      -15.66947       -0.39188
C         18.83758      -16.10501       -0.35499
O         19.82344      -15.42991       -0.13291
C         18.74134      -17.48441       -0.74653
C         19.64251      -18.47128       -1.00456
S         18.87250      -19.91728       -1.47956
C         17.29419      -19.22111       -1.31702
C         17.39642      -17.91986       -0.90492
C         16.49851      -16.86065       -0.52132
C         15.20633      -16.98738       -0.14116
C         14.47888      -18.19471       -0.34549
N         13.88793      -19.17395       -0.52955
C         14.52667      -15.97745        0.60296
N         13.98314      -15.19612        1.26612
Cl        21.35071      -18.40920       -0.90454
H          2.73300        5.61807       -5.29607
H          4.25556        1.03111       -1.70322
H          3.92857       -1.68006       -2.24192
H          7.49189        0.36728       -3.47985
H          7.96387       -4.63460       -2.81893
H          4.39803       -6.63781       -1.48995
H          6.40034       -9.41108        0.32221
H          5.23776       -8.35628       -0.44395
H          7.64825       -7.43477        1.24432
H          5.97414       -7.54760        1.83096
H          6.40562       -6.36378        0.59826
H         10.33022       -7.34824       -6.45066
H         10.85867       -8.99751       -6.13163
H         11.99615       -6.47863       -4.77933
H         12.76353       -7.37414       -6.10513
H         12.57667       -8.12872       -4.51492
H         10.48217      -10.79646       -4.68116
H         11.35663      -10.13072       -1.80008
H          9.97161      -15.54604       -5.78721
H         11.28331      -16.72018       -5.54532
H         11.36072      -14.37671       -7.53218
H         11.03236      -16.06848       -7.95212
H         12.62308      -15.59754       -7.32233
H         15.79833      -14.71945       -2.90224
H         15.49323      -13.05209       -0.30920
H         17.97736      -13.64868       -0.48185
H         16.42472      -19.82996       -1.52619
