85

C        -10.33585       -6.69599        7.92590
C        -11.30263       -6.43158        8.88806
C        -11.38721       -5.13653        9.45336
C        -12.39028       -4.89258       10.45273
N        -13.20267       -4.71069       11.25855
C        -10.51469       -4.10612        9.03762
C        -10.61590       -2.77341        9.56371
N        -10.68597       -1.68789        9.96387
C         -9.54135       -4.36927        8.06986
C         -9.48073       -5.65201        7.54562
C         -8.58804       -6.09291        6.46996
O         -7.57234       -5.52077        6.13908
C         -9.17002       -7.38417        5.97193
C        -10.00372       -7.89205        7.09100
C        -10.26745       -9.18613        7.39510
C        -10.97136       -9.56027        8.57484
N        -11.54377       -9.83208        9.54637
C         -9.78784      -10.26800        6.60118
N         -9.39745      -11.14362        5.94871
C         -9.11797       -7.82479        4.70090
C         -8.53547       -7.11098        3.60658
C         -8.42804       -5.75587        3.37201
C         -7.78027       -5.42522        2.14755
S         -7.49486       -3.71786        1.77899
C         -6.37820       -3.28999        3.14810
C         -7.51416       -6.54027        1.36508
S         -7.93129       -7.96979        2.24906
C         -6.94962       -6.65459        0.02555
C         -7.18468       -7.60743       -0.95375
C         -6.42444       -7.37131       -2.16326
N         -6.49665       -8.17787       -3.26116
C         -7.36155       -9.21401       -3.10092
C         -7.50563      -10.09573       -4.28568
O         -6.92088       -9.88830       -5.34357
C         -8.39899      -11.26295       -4.16558
C         -9.08090      -11.50699       -3.04557
C         -8.99044      -10.62598       -1.86234
O         -9.65450      -10.89227       -0.86882
C         -8.09068       -9.44993       -1.93758
N         -8.04628       -8.66068       -0.81839
C         -5.63109       -6.24122       -2.10000
S         -5.77060       -5.53234       -0.54271
C         -4.76461       -5.65981       -3.11039
C         -3.97245       -4.52804       -3.02731
C         -3.22322       -4.28114       -4.21879
S         -2.19825       -2.85413       -4.40282
C         -1.03665       -3.05947       -3.03266
C         -3.43344       -5.23880       -5.19896
S         -4.66054       -6.31909       -4.68192
C         -2.91926       -5.32905       -6.52739
C         -2.68585       -6.45698       -7.21685
C         -2.61089       -6.29528       -8.70340
O         -2.26913       -5.32590       -9.34483
C         -3.16123       -7.54542       -9.24823
C         -3.55824       -7.74334      -10.55942
C         -4.24093       -8.92634      -10.85581
C         -4.51683       -9.86148       -9.83135
C         -4.08804       -9.63269       -8.50556
C         -3.38268       -8.47396       -8.21689
C         -2.83165       -7.89938       -6.95904
C         -2.34108       -8.60459       -5.90959
C         -1.59219       -7.97752       -4.86792
N         -0.95791       -7.48134       -4.03150
C         -2.43476      -10.02927       -5.83530
N         -2.50695      -11.18458       -5.80370
C         -5.26625      -11.05604      -10.10531
N         -5.87421      -12.01993      -10.31182
C         -4.68151       -9.13889      -12.20583
N         -5.02698       -9.28404      -13.30100
H        -12.01851       -7.18606        9.20756
H         -8.86701       -3.59526        7.70762
H         -9.62836       -8.74388        4.42143
H         -8.78256       -5.00335        4.06417
H         -6.08170       -2.24122        3.06032
H         -5.47776       -3.90993        3.11332
H         -6.86746       -3.42274        4.11748
H         -8.47357      -11.90740       -5.03561
H         -9.74090      -12.36358       -2.95433
H         -3.93472       -3.88902       -2.15362
H         -0.24460       -2.30959       -3.12146
H         -0.57765       -4.05048       -3.06489
H         -1.53041       -2.91620       -2.06719
H         -2.83253       -4.37649       -7.05280
H         -3.37826       -6.97521      -11.30950
H         -4.36060      -10.34502       -7.72814
