107

C         -1.32400       -4.46824       -5.24613
C         -2.62743       -4.39158       -4.89410
C         -3.63960       -5.07399       -5.62123
N         -4.45076       -5.64111       -6.23414
C         -3.06348       -3.54102       -3.83199
N         -3.41028       -2.82865       -2.98581
C         -0.75525       -5.10940       -6.45011
C          0.37002       -4.35473       -6.82686
C          1.14752       -4.67032       -7.92234
C          0.84173       -5.84721       -8.61804
C         -0.19960       -6.70019       -8.16866
C         -1.03180       -6.30507       -7.09873
C         -0.37749       -8.09358       -8.67462
O         -1.42493       -8.71643       -8.62523
O          0.84924       -8.57421       -8.97255
C          0.98887       -9.97935       -9.18698
C          1.64384       -6.15117       -9.76894
N          2.30322       -6.36017      -10.69812
C          0.69755       -3.36039       -5.77666
O          1.59622       -2.54960       -5.79717
C         -0.22358       -3.70893       -4.64638
C          0.26506       -3.67418       -3.39312
C         -0.20996       -4.50416       -2.32424
C         -0.22197       -4.24462       -0.94730
C         -0.73254       -5.34323       -0.20959
C         -1.06816       -6.38383       -1.03860
S         -0.70698       -6.15882       -2.63183
C         -1.58775       -7.44403       -0.27650
C         -1.56846       -7.09715        1.05054
C         -1.01066       -5.74141        1.17616
C         -0.77932       -5.03579        2.29940
C         -1.08591       -5.55592        3.58292
N         -1.33831       -5.98212        4.63333
C         -0.19735       -3.73806        2.26067
N          0.28758       -2.68459        2.21209
C         -2.05744       -8.15916        1.85287
C         -2.46894       -9.26355        1.08263
S         -2.15997       -8.95758       -0.61088
C         -3.03310      -10.58206        1.49881
C         -3.98147      -11.33962        0.75910
C         -4.48367      -12.61722        1.21071
N         -5.42655      -13.25149        0.47880
C         -5.83551      -12.72618       -0.68732
C         -5.33681      -11.53966       -1.13458
N         -4.44153      -10.83963       -0.41182
C         -4.03968      -13.24108        2.40075
C         -3.09980      -12.50574        3.17917
C         -2.59661      -11.15650        2.72723
N         -1.71793      -10.62486        3.59758
S         -1.55481      -11.67562        4.85835
N         -2.54920      -12.88587        4.34683
C         -4.48870      -14.57710        2.88657
C         -4.62772      -15.05147        4.19917
C         -5.09941      -16.38076        4.23401
C         -5.33452      -16.86623        2.96950
S         -4.88817      -15.84739        1.74607
C         -5.89632      -18.15545        3.06803
C         -5.99575      -18.48825        4.39763
C         -5.44706      -17.40789        5.21406
C         -5.23992      -17.39956        6.54507
C         -5.55880      -18.52377        7.35693
N         -5.80087      -19.45356        8.00886
C         -4.63152      -16.29505        7.19929
N         -4.12664      -15.39878        7.73982
C         -6.59506      -19.74832        4.57292
C         -6.93489      -20.33771        3.35259
S         -6.46618      -19.30706        2.01701
C         -7.49839      -21.61594        3.05043
C         -8.39499      -22.27160        3.80696
C         -8.81225      -23.69215        3.70692
C         -8.99308      -24.42261        2.57906
C         -9.49786      -25.75443        2.59989
N         -9.90269      -26.84110        2.63205
C         -8.74938      -23.89225        1.27898
N         -8.53578      -23.45760        0.22517
C         -9.16464      -24.10961        5.09675
C         -9.29342      -22.95901        5.88272
C         -8.98948      -21.76398        5.08962
O         -9.22642      -20.62646        5.43389
C         -9.57096      -22.97898        7.24122
C         -9.70886      -24.22283        7.87109
C         -9.57712      -25.40598        7.10899
C         -9.29649      -25.34226        5.71861
C         -9.65741      -26.74476        7.75446
O         -9.32599      -26.97035        8.90229
O        -10.12903      -27.63592        6.85187
C        -10.21374      -28.99954        7.27827
C         -9.97322      -24.21931        9.28335
N        -10.19882      -24.12608       10.41721
H          2.00560       -4.05666       -8.18948
H         -1.81119       -6.97749       -6.74240
H          1.80891      -10.13127       -9.89573
H          0.08527      -10.44736       -9.58488
H          1.27146      -10.43474       -8.23442
H          1.17183       -3.10223       -3.19349
H          0.11798       -3.29966       -0.53786
H         -2.11246       -8.14839        2.93500
H         -6.57179      -13.29634       -1.24105
H         -5.63855      -11.10847       -2.08134
H         -4.40788      -14.44501        5.06905
H         -6.78545      -20.21860        5.52837
H         -7.07548      -22.09306        2.17030
H         -9.63828      -22.04509        7.79810
H         -9.14442      -26.26853        5.17120
H        -11.13545      -29.42080        6.86756
H        -10.23439      -29.11295        8.36565
H         -9.36515      -29.54960        6.86136
