106

C          3.65469       -0.09479        8.88977
C          4.98311       -0.32693        9.23898
F          5.63951        0.58965        9.96291
C          5.62272       -1.49444        8.84874
F          6.89780       -1.71547        9.19571
C          4.94795       -2.44946        8.09809
C          3.61073       -2.23750        7.73424
C          2.94346       -1.04289        8.13739
C          1.58848       -0.83262        7.78921
C          0.90473       -1.78652        7.04299
C          1.59413       -2.94881        6.67743
C          2.92076       -3.19657        6.99291
C          0.70793       -3.89000        5.98861
O          1.06814       -4.93123        5.48158
C         -0.66943       -3.29615        6.07595
C         -0.49836       -1.89340        6.53422
C         -1.37449       -0.86713        6.38604
C         -2.65500       -1.03103        5.78567
N         -3.70642       -1.16973        5.31221
C         -1.07328        0.46938        6.77581
N         -0.82806        1.55560        7.10066
C         -1.78290       -4.02439        5.88556
C         -1.84346       -5.42401        5.53455
C         -2.45211       -5.88752        4.42143
C         -2.32229       -7.35124        4.38654
C         -1.59716       -7.70577        5.61688
C         -1.33010       -6.56602        6.27607
C         -1.25936       -8.98621        6.11245
N         -0.99590      -10.03524        6.53441
C         -2.77751       -8.16028        3.40461
C         -2.60184       -9.61209        3.33514
C         -3.16684      -10.08853        2.20057
C         -3.75406       -8.94000        1.51268
C         -3.52226       -7.80650        2.19476
C         -3.97241       -6.54182        1.76213
N         -4.35658       -5.50834        1.39744
C         -3.22340      -11.50395        1.75844
C         -3.26629      -11.91031        0.40890
C         -3.46644      -13.29101        0.00910
N         -3.45041      -13.57896       -1.31175
C         -3.24025      -12.59017       -2.22831
C         -3.06474      -11.28753       -1.84271
N         -3.08936      -10.94931       -0.53141
C         -2.84762      -10.21229       -2.77398
N         -2.67992       -9.35844       -3.53436
C         -3.22170      -12.99863       -3.60060
N         -3.20994      -13.30014       -4.72034
C         -3.65702      -14.34913        0.94311
C         -3.48465      -13.97616        2.32020
C         -3.25628      -12.54550        2.72340
N         -3.12035      -12.40466        4.05258
S         -3.20404      -13.89094        4.74211
N         -3.51662      -14.78200        3.39852
C         -3.93956      -15.78561        0.57533
S         -3.33642      -17.02690        1.58631
C         -3.72945      -18.32654        0.55719
C         -4.45146      -17.83712       -0.52836
C         -4.70626      -16.39141       -0.42805
C         -5.67365      -15.68049       -1.34787
C         -6.65750      -16.59598       -2.05470
S         -5.79351      -17.84283       -2.96531
O         -4.81375      -17.18862       -3.80995
O         -6.78924      -18.72722       -3.54274
C         -4.97242      -18.71821       -1.64188
C         -3.42543      -19.68717        0.93855
C         -2.41014      -20.07311        1.73639
C         -2.44939      -21.40848        2.44287
O         -3.03753      -22.41224        2.10307
C         -1.69839      -21.19830        3.71002
C         -1.54515      -22.07119        4.77543
C         -0.92973      -21.58795        5.94579
C         -0.58140      -20.20513        6.04541
C         -0.06745      -19.70399        7.25059
C          0.18434      -20.56545        8.31192
C         -0.07873      -21.92241        8.19271
C         -0.65038      -22.43531        7.03003
F          0.21889      -22.75508        9.19947
F          0.70430      -20.07410        9.44501
C         -0.72196      -19.36130        4.93221
C         -1.19916      -19.88939        3.74375
C         -1.32931      -19.32800        2.38361
C         -0.41936      -18.52426        1.78008
C         -0.43924      -18.29021        0.37241
N         -0.44947      -18.10524       -0.77309
C          0.64045      -17.90730        2.50064
N          1.47934      -17.38899        3.11294
H          3.19034        0.83243        9.21599
H          5.47673       -3.35457        7.81070
H          1.10495        0.07485        8.13887
H          3.38579       -4.12855        6.68108
H         -2.77102       -3.59561        6.02764
H         -2.92312       -5.25623        3.68692
H         -0.81334       -6.48068        7.22112
H         -2.08678      -10.20981        4.06664
H         -4.29362       -9.00076        0.57818
H         -5.11733      -15.12077       -2.10110
H         -6.26332      -14.97188       -0.75501
H         -7.27551      -16.03446       -2.76174
H         -7.31916      -17.11182       -1.35076
H         -4.16215      -19.29565       -2.09739
H         -5.71965      -19.40471       -1.23004
H         -4.16010      -20.44132        0.65351
H         -1.89796      -23.09653        4.69888
H          0.16377      -18.64871        7.37446
H         -0.84993      -23.50233        6.97927
H         -0.44660      -18.31241        5.00783
