100

C         -2.19514        1.80242       -0.92068
S         -2.57445        0.25271       -0.32083
C         -2.16060       -0.53789       -1.82014
C         -1.59169        0.37879       -2.70205
C         -1.73932        1.75019       -2.21391
C         -1.41877        2.89123       -2.97003
C         -1.62080        4.21853       -2.49088
N         -1.80231        5.29564       -2.09931
C         -0.92291        2.60108       -4.25678
C         -0.71165        1.26974       -4.72564
C         -1.02810        0.10999       -3.97105
C         -0.67915       -1.19526       -4.42565
N         -0.35837       -2.24808       -4.78572
C         -2.52425       -1.91636       -1.90880
C         -1.73326       -2.96262       -1.56305
N         -0.38332       -2.87652       -1.05297
O          0.33070       -3.87684       -1.20710
O         -0.03036       -1.85021       -0.46050
C         -2.44789       -4.21784       -1.62167
C         -3.71365       -3.97615       -1.99015
C         -3.86100       -2.53612       -2.24619
C         -5.00838       -1.93979       -2.65877
C         -5.22828       -0.49376       -2.76647
C         -6.51558       -0.27901       -3.07900
C         -7.16598       -1.55621       -3.23251
N         -8.54468       -1.69877       -3.64816
O         -9.20654       -2.64794       -3.21159
O         -8.98783       -0.81433       -4.39612
C         -6.31096       -2.58154       -3.03359
C         -6.65438       -3.96879       -3.21126
C         -6.09256       -4.81385       -4.09448
C         -6.45489       -6.19731       -4.10613
S         -6.89374       -6.94704       -2.62209
C         -7.18897       -8.49067       -3.30695
C         -6.92548       -8.45155       -4.66257
C         -6.47906       -7.14380       -5.11445
C         -6.13919       -6.85797       -6.44490
C         -6.25734       -7.97910       -7.30421
C         -5.90900       -7.82720       -8.76442
C         -6.70497       -9.26558       -6.84675
C         -7.06280       -9.55867       -5.51164
C         -7.68183       -9.51888       -2.45134
C         -7.27928       -9.61902       -1.17248
C         -7.83373      -10.56593       -0.24137
C         -8.51484      -10.24138        0.88495
N         -8.79375       -8.88968        1.32493
O         -8.92195       -8.72164        2.54558
O         -8.90994       -7.99361        0.47868
C         -9.00995      -11.41022        1.56592
C         -8.63428      -12.49851        0.87218
C         -7.82239      -12.06095       -0.27485
C         -7.18453      -12.86855       -1.15780
C         -6.37531      -12.42401       -2.29861
C         -5.98164      -13.50069       -2.99068
C         -6.45373      -14.67419       -2.29944
N         -6.06563      -16.00580       -2.70839
O         -5.88463      -16.17554       -3.92264
O         -5.89781      -16.87618       -1.84590
C         -7.16529      -14.36233       -1.19244
C         -7.67143      -15.28786       -0.20545
C         -8.54727      -16.27695       -0.45667
C         -8.86401      -17.28765        0.50352
S         -7.61964      -17.81603        1.60862
C         -8.52906      -19.12714        2.19019
C         -9.77563      -19.16690        1.62085
C        -10.00693      -18.06592        0.68953
C        -11.25701      -17.89901        0.04546
C        -11.60056      -16.78428       -0.77190
N        -11.90850      -15.87466       -1.42155
C        -12.20821      -18.90616        0.35367
C        -11.95055      -19.99202        1.23833
C        -10.72751      -20.15400        1.91591
C        -10.47247      -21.23539        2.81312
N        -10.25647      -22.10544        3.54038
H         -2.33870        2.66165       -0.27797
H         -0.66790        3.42878       -4.92298
H         -0.27021        1.15290       -5.71936
H         -2.03914       -5.17440       -1.32966
H         -4.48132       -4.72999       -2.00496
H         -4.52461        0.29715       -2.59035
H         -7.00682        0.67396       -3.20401
H         -7.45684       -4.30633       -2.55234
H         -5.31910       -4.47760       -4.77840
H         -5.82338       -5.88611       -6.80105
H         -5.56051       -6.81425       -8.99156
H         -6.78828       -8.02877       -9.38448
H         -5.10858       -8.52392       -9.03460
H         -6.77841      -10.07284       -7.57894
H         -7.40279      -10.54247       -5.21417
H         -8.40230      -10.22180       -2.86263
H         -6.55625       -8.92830       -0.74165
H         -9.62804      -11.38727        2.45249
H         -8.92375      -13.50271        1.12707
H         -6.09212      -11.42546       -2.57397
H         -5.36569      -13.50632       -3.87760
H         -7.23387      -15.15677        0.78339
H         -8.96652      -16.37709       -1.45815
H         -8.08359      -19.78969        2.92116
H        -13.20084      -18.85191       -0.10011
H        -12.74358      -20.72390        1.40181
