90

C        -12.93706        1.83894       -2.78257
C        -13.79931        1.12169       -2.01990
C        -14.99968        0.56343       -2.53284
N        -15.99017        0.10652       -2.94535
C        -13.60089        0.87552       -0.63120
N        -13.45444        0.66863        0.50563
C        -13.08072        2.16345       -4.24686
C        -12.01637        2.98705       -4.62547
C        -11.82952        3.53104       -5.88890
C        -12.78806        3.22507       -6.86945
C        -13.85069        2.37439       -6.52909
C        -14.01310        1.82974       -5.22347
S        -14.88183        2.11306       -7.89304
C        -13.94940        3.12078       -8.87626
C        -12.87169        3.66326       -8.23243
Br       -14.34565        3.46290      -10.67423
C        -11.11433        3.22477       -3.50940
O        -10.09148        3.87974       -3.55623
C        -11.69896        2.50976       -2.33742
C        -11.05779        2.61444       -1.16320
N         -9.91426        3.35110       -0.91548
C         -9.20838        3.50896        0.23992
S         -9.62514        2.66792        1.68523
C         -8.28479        3.26707        2.50103
N         -8.05707        2.83129        3.84070
O         -6.89832        2.50096        4.12046
O         -9.02296        2.83452        4.61487
C         -7.50756        4.11146        1.74634
C         -8.07936        4.31117        0.44365
C         -7.49078        5.19118       -0.54084
C         -8.18535        5.88809       -1.45726
C         -7.60750        6.63185       -2.55507
C         -8.30993        7.18900       -3.56624
C         -9.81716        7.23640       -3.66265
C         -7.59873        7.79461       -4.75492
N         -7.88298        6.96221       -5.90651
C         -7.36217        7.13125       -7.16092
C         -7.54994        6.32005       -8.20900
C         -6.93103        6.51700       -9.49939
C         -7.57660        6.50541      -10.68641
C         -8.98475        6.34013      -10.98397
C         -9.38006        6.37831      -12.27200
C         -8.43466        6.60886      -13.36554
C         -7.11085        6.76627      -13.15428
C         -6.61197        6.69349      -11.79144
C         -5.35382        6.79211      -11.30190
C         -5.50263        6.66737       -9.83554
C         -4.50579        6.65317       -8.93904
C         -4.16067        6.99063      -12.10987
C         -3.32021        8.03358      -12.02394
C         -2.20319        8.29404      -12.90477
C         -1.69894        9.53384      -12.77566
C         -2.36343       10.33078      -11.75546
S         -3.51337        9.33146      -10.88312
C         -2.20654       11.63932      -11.47983
C         -1.36031       12.59164      -12.17314
C         -1.39913       13.82889      -11.65328
C         -2.26728       13.94287      -10.50898
S         -3.08324       12.45352      -10.17227
C         -2.45124       15.02900       -9.75540
H        -10.97986        4.17554       -6.09787
H        -14.86234        1.18159       -5.04241
H        -12.16260        4.33930       -8.69591
H        -11.41976        2.11192       -0.27871
H         -9.55541        3.81019       -1.76267
H         -6.60144        4.58184        2.11095
H         -6.40476        5.27754       -0.53040
H         -9.26868        5.84267       -1.43246
H         -6.51856        6.65234       -2.59905
H        -10.31610        7.14665       -2.69510
H        -10.18441        6.43742       -4.31464
H        -10.14377        8.19183       -4.08681
H         -6.51656        7.85087       -4.58822
H         -7.95726        8.81600       -4.92680
H         -8.31719        6.06240       -5.71804
H         -6.74266        8.02291       -7.25776
H         -8.19441        5.45178       -8.11598
H         -9.69229        6.18637      -10.17865
H        -10.42621        6.24927      -12.53278
H         -8.84467        6.66391      -14.36962
H         -6.42877        6.96015      -13.97287
H         -3.46758        6.75817       -9.22999
H         -4.69665        6.55405       -7.87620
H         -4.01162        6.24759      -12.88943
H         -1.84290        7.56720      -13.62075
H         -0.88288        9.90808      -13.37801
H         -0.76866       12.33304      -13.03956
H         -0.84294       14.66995      -12.04180
H         -1.93371       15.95884       -9.95337
H         -3.12590       15.00706       -8.90313
