106

C        -16.44584       15.52632       -2.38623
C        -17.55061       14.77119       -2.24311
C        -18.83220       15.36199       -2.04185
N        -19.85769       15.86403       -1.85036
C        -17.47058       13.34772       -2.16848
N        -17.38677       12.20466       -2.13566
C        -16.34168       17.01889       -2.38406
C        -15.07201       17.34895       -1.90040
C        -14.47604       18.59047       -2.06556
C        -15.20610       19.56288       -2.78588
C        -16.52883       19.27416       -3.16219
C        -17.13958       18.01187       -2.93776
S        -17.24306       20.62425       -3.97450
C        -15.78589       21.47691       -3.97709
C        -14.78398       20.84217       -3.29345
Br       -15.56371       23.12134       -4.84731
C        -14.40164       16.10871       -1.47593
O        -13.63535       15.96096       -0.54294
C        -15.04173       15.06861       -2.32471
C        -14.39573       14.23370       -3.16947
N        -13.05907       14.02092       -3.50861
C        -11.91283       14.75391       -3.31647
S        -11.85118       16.41375       -2.85008
C        -10.27761       16.25954       -2.29516
N         -9.74778       17.30006       -1.49206
O         -9.14880       18.20425       -2.08727
O         -9.93556       17.21693       -0.27275
C         -9.63197       15.23504       -2.93224
C        -10.59042       14.44872       -3.66930
C        -10.17096       13.56270       -4.70901
C        -10.91512       13.28037       -5.78743
C        -10.34262       12.73559       -6.98134
C        -10.67916       11.55726       -7.52480
C        -11.62775       10.58716       -6.86961
C         -9.99092       11.12653       -8.79184
N         -8.99070       10.18617       -8.35766
C         -7.96231        9.68663       -9.10876
C         -7.04816       10.24759       -9.90817
C         -5.96736        9.55633      -10.62613
C         -5.61921        8.25159      -10.64609
C         -4.60312        7.64209      -11.49061
C         -4.59378        6.29455      -11.45973
C         -5.53608        5.70458      -10.52228
S         -6.33213        7.01028       -9.66353
C         -5.90691        4.42620      -10.28318
C         -5.63692        3.19292      -11.00497
C         -6.58617        2.24441      -10.79997
C         -7.68766        2.72347       -9.96406
S         -7.00007        3.98148       -8.94961
C         -9.01547        2.42759      -10.08220
C        -10.12862        3.26984       -9.61701
C         -9.90641        4.63610       -9.55273
S        -11.00164        5.43880       -8.56580
C        -12.10332        4.14884       -8.71794
C        -11.57986        3.03767       -9.38533
C        -12.57542        2.04982       -9.73909
C        -12.36015        1.15468      -10.96577
C        -11.82887       -0.24594      -10.73359
C        -13.97065        2.12063       -9.20622
C        -14.90850        0.92758       -9.43985
C        -15.44106        0.22927       -8.18484
C        -14.42589        3.34111       -8.58638
C        -15.73528        3.93141       -8.25248
C        -15.61708        5.16804       -7.64481
S        -14.02097        5.68748       -7.52466
C        -13.44487        4.29138       -8.32839
C        -17.04422        3.41187       -8.53142
C        -18.16486        4.13377       -8.69428
H        -13.44063       18.75847       -1.78398
H        -18.14368       17.82686       -3.30334
H        -13.78004       21.23867       -3.18806
H        -15.00695       13.59926       -3.80945
H        -12.92268       13.09983       -3.93671
H         -8.55719       15.11377       -2.94971
H         -9.11724       13.27881       -4.72193
H        -11.94794       13.60004       -5.88419
H         -9.58599       13.35699       -7.46049
H        -11.34899       10.42332       -5.82120
H        -11.60296        9.60549       -7.35433
H        -12.65668       10.95427       -6.91098
H         -9.53036       11.97579       -9.30935
H        -10.70881       10.66810       -9.48299
H         -9.40814        9.44845       -7.78928
H         -7.95386        8.62771       -8.91018
H         -7.08131       11.32694      -10.04595
H         -5.38818       10.24551      -11.24267
H         -3.93156        8.25148      -12.08557
H         -3.89484        5.70003      -12.03766
H         -4.78674        3.07986      -11.66269
H         -6.58344        1.26910      -11.26235
H         -9.28624        1.56153      -10.67646
H         -9.06637        5.20668       -9.91130
H        -11.70260        1.67869      -11.67041
H        -13.30827        1.09200      -11.51945
H        -10.74972       -0.23487      -10.56892
H        -12.01626       -0.85403      -11.62790
H        -12.30191       -0.74330       -9.88355
H        -14.38987        0.13481       -9.98034
H        -15.73185        1.23313      -10.09399
H        -16.25873        0.76775       -7.70323
H        -15.84281       -0.75468       -8.46053
H        -14.66048        0.07402       -7.43496
H        -16.39737        5.82318       -7.28415
H        -17.15846        2.34035       -8.63126
H        -18.17971        5.21873       -8.65379
H        -19.11373        3.64493       -8.88950
