97

C          1.22862        1.50381       -6.70910
C          1.25520        1.92313       -5.43376
C          1.60602        1.02499       -4.37000
C          1.91397       -0.39250       -4.59746
C          1.92989       -0.96963       -5.79799
S          1.58369       -0.10572       -7.27494
C          2.15549       -0.96075       -3.32931
C          2.01315        0.00268       -2.36009
C          2.22531       -0.47689       -1.05622
C          2.53546       -1.83005       -1.10173
S          2.55618       -2.46315       -2.72059
C          1.68221        1.23748       -3.02827
C          1.41158        2.46636       -2.34159
C          2.08117        3.61303       -2.53229
C          1.79138        4.78278       -1.77065
S          2.08409        6.31385       -2.47612
C          1.49591        7.18127       -1.11502
C          1.11107        6.30875       -0.10650
C          1.31190        4.92871       -0.47668
C          0.98567        3.80212        0.46305
C          0.84265        4.24433        1.92156
C          0.29291        3.10732        2.68384
N         -0.14574        2.19414        3.24782
C         -0.06395        5.48509        2.00028
C         -0.28275        5.89172        3.40168
N         -0.42616        6.22647        4.49441
C          0.56345        6.67560        1.24554
C          1.47468        8.63430       -1.11973
C          1.65181        9.49880       -0.06049
C          1.56831       10.87897       -0.43884
S          1.70336       12.11062        0.82517
C          3.49030       12.34572        0.87004
C          1.35244       11.06367       -1.80255
S          1.16014        9.52138       -2.54354
C          1.19875       12.28058       -2.60463
S          0.40502       13.63425       -1.93979
C          0.65509       14.65710       -3.30073
C          1.23942       13.91899       -4.32316
C          1.50723       12.53902       -3.94114
C          2.08929       11.56535       -4.93388
C          2.04563       12.05125       -6.39178
C          2.88388       11.13808       -7.19123
N          3.54660       10.39319       -7.78250
C          2.50574       13.51425       -6.49260
C          2.55741       13.96031       -7.89623
N          2.57965       14.30482       -9.00283
C          1.53424       14.42705       -5.71493
C          0.15008       16.00889       -3.29995
C          0.12578       16.80340       -2.21523
C         -0.73100       18.04110       -2.08739
O         -1.17749       18.72765       -2.97940
C         -0.95227       18.20131       -0.61668
C         -1.57161       19.21895        0.08300
C         -1.60469       19.12241        1.49174
C         -1.16523       17.92413        2.13756
C         -1.24275       17.79768        3.52642
C         -1.65530       18.87791        4.28971
C         -2.01683       20.07868        3.69281
C         -2.01749       20.19448        2.29844
F         -1.66870       18.76913        5.62427
C         -0.56060       16.90889        1.40119
C         -0.33997       17.13798        0.05944
C          0.63985       16.56523       -0.87159
C          1.93889       16.38976       -0.52915
C          2.97519       16.48577       -1.50312
N          3.82646       16.64492       -2.27620
C          2.36964       16.28881        0.82599
N          2.70470       16.18535        1.93212
H          0.95854        2.22480       -7.47773
H          1.00410        2.95105       -5.19529
H          2.16327       -2.02349       -5.89702
H          2.16540        0.09370       -0.13917
H          2.75305       -2.48984       -0.27285
H          0.60417        2.37601       -1.62699
H          2.86213        3.66724       -3.28943
H          1.75673        3.02303        0.39904
H          0.03660        3.35686        0.13328
H          1.83876        4.48554        2.31916
H         -1.03890        5.25060        1.54491
H          1.39400        7.09299        1.84306
H         -0.18600        7.47109        1.14382
H          1.83662        9.17080        0.95433
H          3.72435       13.16127        1.55955
H          3.86213       12.61093       -0.12247
H          3.99207       11.43982        1.22008
H          1.52482       10.62930       -4.91584
H          3.11935       11.33721       -4.62872
H          1.01068       11.97564       -6.75812
H          3.51096       13.60654       -6.05838
H          0.57909       14.50595       -6.25421
H          1.95225       15.44040       -5.66331
H         -0.33771       16.35244       -4.21226
H         -1.94708       20.09372       -0.44035
H         -0.93580       16.88629        4.03341
H         -2.28912       20.92125        4.32049
H         -2.29789       21.14627        1.85224
H         -0.17292       16.01969        1.89178
