87

C          0.44114        0.00920        1.66731
S          0.14276       -1.37119        0.70640
C         -0.67175       -2.22327        1.99004
C         -0.72283       -1.41351        3.11560
C         -0.08180       -0.14336        2.92259
C          0.01996        0.85416        3.88977
C         -0.60072        0.51193        5.11927
C         -0.54675        1.51021        6.21312
C         -0.58827        2.83746        6.02958
C         -1.23262       -0.78012        5.33822
C         -1.84445       -1.11529        6.68229
C         -1.31326       -1.78990        4.33054
C         -1.20306       -3.53537        1.77804
C         -0.63663       -4.42555        0.94662
C         -1.19393       -5.72483        0.79978
S         -2.31525       -6.00490       -0.47085
C         -2.54366       -7.67850       -0.06891
C         -1.75823       -8.00238        1.02149
C         -0.98136       -6.88750        1.51068
C         -0.11600       -6.96175        2.61016
C         -0.07665       -8.24991        3.20293
C          0.81024       -8.40975        4.36284
C          0.39222       -8.19491        5.61683
C         -0.85572       -9.36797        2.72549
C         -0.74954      -10.72038        3.39279
C         -1.73880       -9.26853        1.61938
C         -3.49176       -8.38801       -0.86411
C         -3.37768       -9.68191       -1.20712
C         -4.36101      -10.41149       -2.02993
C         -5.46769       -9.79502       -2.62168
C         -6.37888      -10.51473       -3.40159
C         -6.12871      -11.87023       -3.56639
N         -5.07552      -12.52072       -3.01353
C         -4.22308      -11.77754       -2.26396
C         -7.51833       -9.77313       -3.95306
C         -8.70689      -10.29744       -4.29014
C         -9.79931       -9.42076       -4.55162
O         -9.94102       -8.23864       -3.86001
C        -11.10302       -7.62870       -4.20074
C        -11.72529       -8.40861       -5.15621
C        -10.88920       -9.53730       -5.41561
C        -11.10524      -10.62141       -6.37817
O        -10.61171      -11.73663       -6.18727
C        -11.98799      -10.32869       -7.59539
F        -12.01302       -9.01005       -7.94605
F        -11.58473      -10.99851       -8.71195
F        -13.28727      -10.68380       -7.38500
C        -11.58308       -6.40415       -3.61769
O        -12.84910       -5.96314       -3.93523
C        -13.08270       -4.80985       -3.27460
C        -11.99182       -4.47127       -2.51784
C        -11.01130       -5.50536       -2.70963
C         -9.67050       -5.57441       -2.10882
O         -8.73838       -6.12486       -2.70314
C         -9.44126       -4.93487       -0.73020
F        -10.47542       -4.17814       -0.26678
F         -9.20879       -5.86813        0.23557
F         -8.35447       -4.10764       -0.72528
H          0.97380        0.85419        1.25314
H          0.52923        1.79379        3.72096
H         -0.47728        1.12606        7.22633
H         -0.67485        3.29158        5.04756
H         -0.54393        3.51303        6.87764
H         -1.06643       -1.16094        7.45128
H         -2.34526       -2.08930        6.66680
H         -2.59603       -0.36858        6.95759
H         -1.78592       -2.74815        4.50807
H         -2.08842       -3.81486        2.34517
H          0.25683       -4.20483        0.37098
H          0.46894       -6.13033        2.98422
H          1.82963       -8.71966        4.15399
H         -0.62568       -7.88952        5.83973
H          1.06987       -8.33015        6.45394
H         -1.05225      -10.65734        4.44174
H          0.27457      -11.09917        3.31823
H         -1.40366      -11.45471        2.90898
H         -2.33544      -10.11052        1.29793
H         -4.32950       -7.79444       -1.21649
H         -2.51503      -10.26471       -0.89527
H         -5.65513       -8.73592       -2.47107
H         -6.78237      -12.50299       -4.15981
H         -3.39654      -12.34414       -1.84159
H         -7.38424       -8.69054       -3.99850
H         -8.89964      -11.36455       -4.26186
H        -12.68587       -8.18140       -5.60347
H        -14.04768       -4.35030       -3.44837
H        -11.91736       -3.58176       -1.91843
