127

C          1.82641       -0.74642        1.84134
C          1.61408        0.50032        2.42201
C          2.73420        1.33930        2.90486
O          2.59285        2.56138        2.87161
C          4.00351        0.73910        3.34913
C          5.18074        1.40756        3.04118
S          6.58018        0.60654        3.57098
C          5.65209       -0.63939        4.26640
C          4.27939       -0.44836        4.16256
C          3.31342       -1.36518        4.79995
O          2.13767       -1.45558        4.46786
C          3.73222       -2.24270        5.91406
C          3.33470       -3.58889        5.90810
C          3.69000       -4.42299        6.96831
C          4.42914       -3.91231        8.03574
C          4.80016       -2.56739        8.05365
C          4.44254       -1.72619        6.99987
C          0.30763        0.96073        2.59768
C         -0.77555        0.11908        2.32584
C         -0.58607       -1.21035        1.91283
C          0.74115       -1.60325        1.64284
C         -1.69985       -2.17473        1.79198
C         -1.67229       -3.28161        0.90972
F         -0.62195       -3.44134        0.08518
C         -2.67430       -4.26214        0.80791
F         -2.46909       -5.24204       -0.08987
C         -3.84567       -4.26707        1.57584
C         -3.98883       -3.16357        2.46071
C         -2.89350       -2.11061        2.58751
N         -3.20483       -1.18857        3.51723
S         -4.69424       -1.55755        4.12723
N         -5.04264       -2.91776        3.25919
C         -4.88546       -5.29334        1.52934
C         -4.62970       -6.56600        1.19178
C         -5.60417       -7.60740        1.23767
N         -5.91445       -8.43157        0.16033
C         -5.33707       -8.32754       -1.16665
C         -4.07534       -9.16513       -1.31772
C         -6.84370       -9.42977        0.52945
O         -7.34002      -10.31955       -0.13179
C         -7.07084       -9.15465        1.96574
C         -6.28707       -8.00291        2.30744
C         -6.46645       -7.72176        3.73605
O         -5.95561       -6.82669        4.37351
N         -7.33770       -8.75376        4.14626
C         -7.74593       -8.82390        5.53557
C         -9.24044       -8.68359        5.75482
C         -7.66735       -9.60824        3.07640
C         -8.48900      -10.79269        3.12700
C         -8.60499      -11.61160        4.18362
C         -9.37687      -12.85499        4.19749
C        -10.74557      -12.94384        4.45896
C        -11.70027      -11.83606        4.53653
O        -11.48058      -10.69300        4.18719
S        -13.26987      -12.37792        5.06671
C        -12.71475      -14.02968        5.19769
O        -13.31147      -14.87310        5.83784
C        -11.36157      -14.18544        4.64452
C        -10.68210      -15.38149        4.37463
C         -9.33398      -15.26414        4.03864
C         -8.69128      -14.05519        4.01584
C         -7.27197      -14.31714        3.80413
O         -6.35667      -13.52410        3.87774
O         -7.17012      -15.64920        3.57184
C         -8.36464      -16.28406        3.66742
O         -8.57468      -17.46029        3.46007
C        -11.29893      -16.69977        4.32506
C        -11.70229      -17.40065        5.39058
C        -12.15115      -18.78091        5.18483
C        -13.49612      -19.15328        5.00023
C        -14.58065      -18.11637        4.89583
O        -14.36593      -17.13355        4.19735
C        -15.85950      -18.31502        5.60234
C        -15.89108      -19.11360        6.74349
S        -17.40774      -19.21913        7.48935
C        -18.06828      -18.16462        6.34239
C        -17.18885      -17.73365        5.34738
C        -17.78419      -16.80754        4.34738
O        -18.96693      -16.46631        4.47089
C        -17.11503      -16.20457        3.17367
C        -17.45652      -14.87744        2.84621
C        -16.88109      -14.23775        1.74741
C        -15.95544      -14.91960        0.96459
C        -15.66543      -16.25676        1.23920
C        -16.28030      -16.91303        2.31327
C        -13.80746      -20.51637        4.82790
C        -12.79892      -21.48648        4.82844
C        -11.46697      -21.10851        4.96070
C        -11.14519      -19.76485        5.13839
H          2.82795       -1.11702        1.64575
H          5.27133        2.34259        2.50125
H          6.17929       -1.44796        4.75544
H          2.73984       -3.98419        5.08721
H          3.38128       -5.46565        6.96932
H          4.70379       -4.56157        8.86444
H          5.35459       -2.16864        8.90127
H          4.70570       -0.67334        7.04664
H          0.12164        1.95702        2.99372
H         -1.77206        0.51957        2.49688
H          0.97667       -2.61989        1.33588
H         -5.88354       -4.99430        1.84577
H         -3.63252       -6.89201        0.90821
H         -5.12212       -7.27656       -1.39106
H         -6.08027       -8.66944       -1.89517
H         -3.32233       -8.89701       -0.56966
H         -3.63621       -9.01467       -2.30929
H         -4.29669      -10.23069       -1.20091
H         -7.25609       -8.01671        6.09060
H         -7.35380       -9.74542        5.96994
H         -9.60058       -7.70826        5.41614
H         -9.48088       -8.79855        6.81601
H         -9.80055       -9.43935        5.21382
H         -8.98918      -11.04841        2.19015
H         -8.03464      -11.44180        5.09026
H        -11.33891      -17.15238        3.33353
H        -11.68115      -17.02692        6.40924
H        -15.07290      -19.65076        7.20400
H        -19.10963      -17.88343        6.44717
H        -18.18964      -14.33730        3.44474
H        -17.15398      -13.21249        1.50961
H        -15.47278      -14.41510        0.13175
H        -14.94967      -16.79221        0.62098
H        -16.06445      -17.96105        2.48368
H        -14.83458      -20.84096        4.67802
H        -13.04929      -22.53757        4.70229
H        -10.67517      -21.85356        4.91625
H        -10.09514      -19.48222        5.22050
