125

C         -1.44293        2.57832       -5.46953
C         -0.78479        1.54744       -6.04312
C         -1.01479        1.19627       -7.40008
N         -1.23727        0.89801       -8.50566
C          0.02552        0.66852       -5.26427
N          0.68424       -0.02567       -4.61188
C         -2.48270        3.44186       -6.08766
C         -3.48194        3.62607       -5.11955
C         -4.56673        4.46205       -5.27552
C         -4.60463        5.24652       -6.42683
C         -3.57770        5.12636       -7.41554
C         -2.53001        4.18628       -7.25368
C         -3.60862        6.00310       -8.51086
C         -4.61026        6.97275       -8.62804
C         -5.61221        7.06972       -7.66656
C         -5.61446        6.20474       -6.57549
C         -3.05858        3.00333       -3.85628
O         -3.77554        2.61315       -2.96367
C         -1.57397        2.83135       -4.02450
C         -0.59632        3.29711       -3.22145
C         -0.81238        4.13775       -2.06481
S         -2.08051        5.31058       -2.04516
C         -1.59945        6.02760       -0.57773
C         -0.44866        5.42658       -0.09511
C         -0.07777        4.24727       -0.88244
C          1.02373        3.30286       -0.42411
N          0.56269        1.84726       -0.37602
O         -0.62440        1.61654       -0.10880
O          1.43725        0.99020       -0.55388
C          1.54668        3.62846        0.99200
C          1.68845        5.13256        1.22594
C          0.32030        5.83260        1.15038
N          0.61591        7.32297        1.26143
O          0.83449        7.96087        0.22252
O          0.68672        7.78310        2.40955
C         -2.35158        7.13502       -0.08696
C         -3.36855        6.96177        0.77220
C         -4.20049        8.03581        1.23855
N         -4.38220        8.34169        2.58761
C         -3.69701        7.72312        3.70546
C         -2.41237        8.45138        4.06577
C         -5.26503        9.43089        2.75814
O         -5.63166        9.99083        3.77080
C         -5.64480        9.75545        1.37253
C         -4.95115        8.85388        0.49662
C         -5.33401        9.17288       -0.88883
O         -4.94486        8.63269       -1.90368
N         -6.21570       10.26062       -0.72130
C         -6.73941       11.00104       -1.85373
C         -8.02535       10.41459       -2.41326
C         -6.38772       10.57401        0.62952
C         -7.21786       11.63174        1.11420
C         -8.53747       11.67760        0.89850
C         -9.36165       12.76231        1.33564
C        -10.09242       13.51641        0.48969
C        -10.83906       14.49890        1.27813
C        -10.42591       14.27558        2.67382
C         -9.56459       13.24685        2.68608
C        -10.79811       14.98486        3.83894
N        -11.09595       15.56330        4.79772
C        -11.73420       15.37785        0.78024
C        -12.53127       16.31575        1.57068
C        -13.31828       17.02063        0.73460
C        -13.07922       16.55230       -0.61988
C        -12.14520       15.59047       -0.61641
C        -11.69314       14.94559       -1.78976
N        -11.33183       14.40615       -2.75542
C        -14.24812       18.02365        1.18533
C        -14.25240       19.32210        0.84612
C        -15.11907       20.40948        1.35298
C        -16.40796       20.31104        1.73514
C        -17.19405       21.43504        2.10836
N        -17.83628       22.35405        2.40869
C        -17.11262       19.06748        1.74221
N        -17.67671       18.05371        1.74142
C        -14.34958       21.67892        1.15072
C        -13.25307       21.40486        0.32158
C        -13.17726       19.96985        0.01749
O        -12.38642       19.46013       -0.74783
C        -12.34490       22.36560       -0.09517
C        -12.52433       23.67897        0.34881
C        -13.60771       23.98699        1.21895
C        -14.50859       22.97590        1.62087
C        -13.76155       25.30833        1.66556
C        -12.87548       26.30894        1.26117
C        -11.81992       26.00411        0.40685
C        -11.64296       24.69642       -0.04504
H         -5.29002        4.57073       -4.47280
H         -1.73333        4.12553       -7.99034
H         -2.83421        5.96286       -9.27376
H         -4.60341        7.66261       -9.46838
H         -6.38520        7.82921       -7.75487
H         -6.39446        6.30929       -5.82298
H          0.43879        3.20828       -3.56017
H          1.84938        3.33888       -1.14553
H          2.52032        3.14518        1.14366
H          0.87928        3.22067        1.76406
H          2.38444        5.54866        0.48425
H          2.14231        5.30953        2.20974
H         -0.28686        5.57800        2.02893
H         -2.09874        8.12997       -0.45089
H         -3.65039        5.97867        1.13956
H         -3.49016        6.67195        3.47915
H         -4.36789        7.74246        4.57144
H         -1.71396        8.45672        3.22509
H         -1.92341        7.96445        4.91541
H         -2.61177        9.49289        4.33727
H         -5.98048       10.98329       -2.64501
H         -6.88025       12.05063       -1.57535
H         -7.88346        9.37853       -2.73443
H         -8.36144       11.00159       -3.27370
H         -8.83245       10.41960       -1.67897
H         -6.72189       12.40748        1.69377
H         -9.04686       10.87835        0.36752
H        -10.10447       13.38230       -0.57881
H         -9.06933       12.82462        3.54951
H        -12.51797       16.44336        2.64039
H        -13.58609       16.94994       -1.48768
H        -14.95604       17.63268        1.91239
H        -11.51413       22.08638       -0.73777
H        -15.30707       23.24111        2.30683
H        -14.58005       25.57571        2.33155
H        -13.01215       27.32878        1.61266
H        -11.13256       26.78514        0.09107
H        -10.80906       24.47992       -0.71005
