99

C         -0.69928       11.13314       -0.03906
C         -1.63391       12.10243        0.05515
C         -1.27029       13.47692        0.13540
N         -0.95145       14.58937        0.22044
C         -3.01307       11.78860        0.22768
N         -4.13051       11.50973        0.36663
C          0.77040       11.31737       -0.03434
C          1.32916       10.23939        0.66813
C          2.69184       10.06798        0.82435
C          3.53995       10.92904        0.11303
C          2.99042       11.98090       -0.68185
C          1.59792       12.19926       -0.71037
C          3.85190       12.74959       -1.47986
C          5.22180       12.48195       -1.51789
C          5.75834       11.47476       -0.72144
C          4.92635       10.71728        0.10483
C          0.27170        9.24912        0.97451
O          0.32413        8.33925        1.77136
C         -0.89825        9.68926        0.13894
C         -1.70441        8.90446       -0.59523
C         -1.54363        7.49695       -0.69928
S         -0.52675        6.81033       -1.94362
C         -0.88121        5.17705       -1.48702
C         -1.76627        5.17362       -0.44760
C         -2.12829        6.46536       -0.02671
C         -3.04195        6.33209        1.04190
C         -3.24966        5.02455        1.30977
C         -2.44082        4.18175        0.35125
O         -2.39339        2.96911        0.26268
C         -4.06014        4.54031        2.34700
S         -5.75903        4.32377        2.11204
C         -3.74379        4.18286        3.62771
C         -2.56456        4.13893        4.45123
O         -1.44653        4.50104        4.13202
N         -2.99774        3.60720        5.65638
C         -2.11492        3.36289        6.77476
C         -2.01494        4.56843        7.69476
C         -4.35027        3.31211        5.67906
O         -5.01236        2.81920        6.57595
C         -4.82554        3.69716        4.37559
C         -6.01853        3.68240        3.70751
C         -7.29316        3.28131        4.18510
C         -8.22383        2.74299        3.38214
C         -9.49162        2.39133        3.91150
O        -10.05833        3.06131        4.96544
C        -11.28727        2.53093        5.27394
C        -11.51035        1.49166        4.37511
C        -10.38186        1.40535        3.52835
C        -10.18445        0.44912        2.48973
N        -10.04334       -0.34051        1.65225
C        -12.65029        0.64355        4.29445
N        -13.58733       -0.04270        4.20822
C        -12.02904        3.07173        6.35768
C        -13.21833        2.59436        6.73763
C        -13.93414        3.12110        7.87047
C        -14.79982        2.42692        8.62321
C        -15.62057        2.88531        9.75875
C        -15.31841        3.88374       10.62569
C        -16.12980        4.18984       11.74991
N        -16.79651        4.45086       12.66523
C        -14.13168        4.67430       10.52139
N        -13.17229        5.31793       10.42862
C        -16.74342        1.90733        9.87790
C        -16.45421        0.79534        9.07623
C        -15.21813        1.01285        8.32112
O        -14.69654        0.19836        7.58988
C        -17.27763       -0.31407        8.96276
C        -18.48031       -0.31321        9.67325
C        -18.82637        0.81560       10.46835
C        -17.95192        1.92223       10.55890
C        -20.05061        0.80890       11.15306
C        -20.91446       -0.28479       11.06672
C        -20.56892       -1.38923       10.29355
C        -19.35944       -1.40377        9.59890
H          3.07412        9.22453        1.39174
H          1.18675       12.98968       -1.33297
H          3.46019       13.54250       -2.11432
H          5.86936       13.05475       -2.17780
H          6.82477       11.26447       -0.75723
H          5.36999        9.92995        0.71136
H         -2.42050        9.34343       -1.28518
H         -0.43042        4.33835       -2.00289
H         -3.48045        7.16496        1.57262
H         -1.12201        3.11572        6.38555
H         -2.48901        2.50227        7.33967
H         -1.66909        5.45364        7.15118
H         -1.30845        4.36615        8.50591
H         -2.98678        4.80724        8.13920
H         -7.47319        3.38356        5.25524
H         -8.03769        2.56081        2.32914
H        -11.55932        3.88210        6.91286
H        -13.69863        1.77327        6.22166
H        -13.74082        4.17385        8.05116
H        -16.99162       -1.14087        8.31722
H        -18.26193        2.77728       11.15088
H        -20.34593        1.65901       11.76508
H        -21.85923       -0.27306       11.60473
H        -21.24313       -2.23975       10.22765
H        -19.11120       -2.27520        8.99575
