113

C         -2.60228        0.28006        2.91583
N         -2.97331       -0.15938        1.65844
C         -3.30001       -1.52677        1.32421
C         -2.07575       -2.31107        0.88523
C         -3.02018        0.89047        0.72200
O         -3.34013        0.83703       -0.44782
C         -2.61008        2.07249        1.52689
C         -2.40820        1.59589        2.87358
C         -2.06257        2.73207        3.72734
O         -1.86940        2.70671        4.92508
N         -2.05399        3.80974        2.81951
C         -1.82652        5.15876        3.29468
C         -0.35128        5.50609        3.41848
C         -2.35846        3.38930        1.50960
C         -2.41212        4.28972        0.37471
C         -2.68512        3.91865       -0.88921
C         -2.86730        4.86266       -1.93001
S         -4.54100        5.34781       -2.07564
C         -4.20215        6.51350       -3.24359
C         -2.87854        6.48565       -3.58903
C         -2.06205        5.44736       -2.91286
C         -0.66477        5.23848       -3.25789
C         -0.29548        6.21104       -4.25542
C         -1.10773        7.24206       -4.82582
C         -2.45031        7.40779       -4.52967
O          0.96494        6.21124       -4.79958
C          0.31224        4.24730       -2.68861
S         -0.19738        2.69608       -2.08706
C          1.31755        2.35084       -1.35424
C          2.19506        3.38974       -1.61359
C          1.70486        4.04699       -2.80472
C          2.68765        4.32943       -3.93572
N          2.34047        3.47686       -5.18242
O          3.27759        3.13474       -5.91930
O          1.15450        3.19203       -5.40012
C          4.15547        3.98959       -3.54866
C          4.45502        4.40919       -2.11658
C          3.62938        3.54465       -1.15534
N          3.73553        4.21898        0.19804
O          2.85543        5.02020        0.53701
O          4.73258        3.94627        0.87889
C          1.53631        1.05746       -0.80311
C          2.29022        0.82732        0.28263
C          2.70981       -0.49137        0.72053
C          1.99848       -1.61723        0.46434
C          2.54195       -2.74058        1.19354
C          2.02432       -4.05685        1.13283
N          1.58703       -5.13211        1.07820
C          3.57864       -2.32926        1.94006
C          3.79036       -0.89993        1.66731
C          4.83827       -0.17987        2.13152
C          5.80292       -0.55353        3.17979
C          6.74799        0.40940        3.22142
C          6.43724        1.43811        2.25555
C          5.30706        1.09789        1.61486
C          7.22502        2.60696        2.08729
N          7.89901        3.54946        2.00168
C          5.70848       -1.56414        4.18884
C          6.71270       -2.39953        4.47643
C          6.57509       -3.46852        5.42073
C          6.10960       -3.26007        6.67202
C          6.20075       -4.47663        7.42795
C          5.78445       -4.61947        8.76613
N          5.43681       -4.72836        9.86372
C          6.75160       -5.43420        6.67594
C          7.00035       -4.88710        5.34451
C          7.45200       -5.58187        4.27342
C          7.90736       -6.99125        4.21776
C          8.18204       -7.25940        2.92198
C          7.95066       -6.08807        2.10726
C          7.54549       -5.07489        2.89714
C          8.12597       -6.03198        0.69840
N          8.26805       -5.97742       -0.45134
C          8.16269       -7.97570        5.24077
C          7.21982       -8.55003        5.99665
H         -2.52020       -0.38464        3.76235
H         -4.03333       -1.51773        0.50969
H         -3.77033       -2.00074        2.19203
H         -1.54145       -1.79853        0.07836
H         -2.36988       -3.30252        0.52763
H         -1.37803       -2.44158        1.71874
H         -2.27608        5.24197        4.29304
H         -2.34775        5.88107        2.66167
H          0.11515        4.95243        4.24107
H         -0.23457        6.57404        3.63278
H          0.19729        5.27446        2.50115
H         -2.24460        5.34613        0.56643
H         -2.90752        2.89583       -1.16068
H         -4.98916        7.15025       -3.62523
H         -0.65814        7.94083       -5.53133
H         -3.05807        8.17953       -4.98369
H          0.85864        6.36625       -5.75606
H          2.72646        5.36517       -4.24746
H          4.83991        4.51207       -4.23002
H          4.36922        2.91645       -3.65159
H          4.22712        5.47667       -1.99114
H          5.52532        4.29162       -1.90499
H          4.10291        2.56016       -1.07209
H          1.13571        0.22875       -1.38500
H          2.62961        1.65480        0.89642
H          1.10324       -1.69775       -0.13700
H          4.18901       -2.96908        2.55517
H          7.56700        0.48240        3.92362
H          4.85193        1.63302        0.81242
H          4.74267       -1.64327        4.68599
H          7.66729       -2.32389        3.96311
H          5.76517       -2.32222        7.09244
H          6.92348       -6.42917        7.02895
H          8.55353       -8.19695        2.53090
H          7.30694       -4.08663        2.54378
H          9.20388       -8.26465        5.37509
H          6.16899       -8.29400        5.89140
H          7.48809       -9.25136        6.78034
