106

C          0.22059        1.60944       -3.08402
C         -1.04454        2.10076       -3.25839
S         -2.15460        1.27187       -2.21513
C         -0.92163        0.29082       -1.56275
Cl        -1.31341       -0.91204       -0.40787
C          0.29292        0.58655       -2.10442
C          1.62400        0.07502       -1.94388
O          2.04551       -0.64389       -1.05267
C          2.35989        0.69682       -3.12697
C          1.52974        1.84686       -3.63623
C          1.95547        2.92201       -4.33474
C          1.06885        3.95822       -4.71218
N          0.32347        4.81274       -5.01549
C          3.31500        3.12408       -4.69000
N          4.43118        3.26759       -4.98262
C          3.43058        0.16862       -3.74820
C          4.18983       -1.03827       -3.40382
C          5.56515       -1.05634       -3.67723
C          6.29780       -2.20224       -3.37866
N          7.69746       -2.25273       -3.76112
O          8.45084       -1.41789       -3.24329
O          8.02485       -3.08851       -4.61429
C          5.69167       -3.30037       -2.77378
C          4.31269       -3.30291       -2.56774
C          3.56618       -2.19334       -2.92447
C          6.39269       -4.49442       -2.37950
C          6.93085       -4.67330       -1.16794
C          7.52006       -5.91567       -0.75035
N          7.92454       -6.18016        0.55509
C          8.01424       -5.24368        1.65519
C          9.36405       -4.53957        1.67037
C          8.43112       -7.48922        0.68495
O          8.84242       -8.04307        1.68287
C          8.34441       -8.02151       -0.69367
C          7.75391       -6.99291       -1.50080
C          7.63412       -7.51861       -2.86299
O          7.10939       -7.02158       -3.83642
N          8.21762       -8.79743       -2.78146
C          7.93254       -9.60428       -3.93386
C          8.65588      -10.88068       -4.19281
C          8.66432       -9.06398       -1.47858
C          9.45498      -10.19833       -1.06186
C         10.38810      -10.07787       -0.10309
C         11.30113      -11.07612        0.33456
S         11.83487      -10.87542        1.97868
C         12.57603      -12.39915        2.01805
C         12.45223      -13.07113        0.82977
C         11.93648      -12.17743       -0.23031
C         11.96123      -12.53104       -1.60806
C         12.28112      -13.89532       -1.79608
C         12.67720      -14.78198       -0.74592
C         12.85019      -14.40300        0.60377
O         13.31648      -15.40383        1.43397
C         13.50152      -15.12841        2.81176
C         11.79098      -11.62934       -2.76882
C         12.20417      -10.35040       -2.80929
C         11.91828       -9.31076       -3.82597
C         11.76368       -7.96926       -3.39719
F         11.90956       -7.69335       -2.08705
C         11.38718       -6.89333       -4.23173
F         11.24403       -5.68679       -3.65368
C         11.09596       -7.02334       -5.60001
C         11.12052       -8.36520       -6.05824
C         11.57119       -9.50566       -5.19622
N         11.46219      -10.63266       -5.94617
N         10.77165      -10.20075       -7.02267
C         10.08714      -11.10176       -7.93908
C          8.74716      -11.65957       -7.46638
N         10.71445       -8.88215       -7.23258
C         10.79034       -5.85331       -6.43244
C         10.20532       -5.82648       -7.63605
H         -1.42123        2.87099       -3.91848
H          3.81169        0.62504       -4.64994
H          6.06029       -0.20002       -4.12687
H          3.81036       -4.17160       -2.14371
H          2.48817       -2.26064       -2.79641
H          6.36764       -5.23308       -3.16051
H          6.87644       -3.86644       -0.44389
H          7.90184       -5.80180        2.59177
H          7.19304       -4.52317        1.61376
H          9.42352       -3.84500        2.51300
H          9.52957       -3.97672        0.74600
H         10.18243       -5.26229        1.76726
H          8.10563       -8.96539       -4.81719
H          6.85421       -9.80003       -3.93694
H          9.62862      -10.64041       -4.56603
H          8.13250      -11.42286       -4.97419
H          8.77227      -11.55937       -3.36232
H          9.35329      -11.13550       -1.58552
H         10.45666       -9.14781        0.44944
H         13.03596      -12.67987        2.94923
H         12.25416      -14.30569       -2.80606
H         12.89487      -15.81705       -1.01309
H         13.80333      -16.05634        3.30700
H         12.57012      -14.80474        3.28729
H         14.31541      -14.41114        2.95923
H         11.30715      -12.07766       -3.63139
H         12.71325       -9.94950       -1.93135
H         10.77156      -11.92115       -8.16900
H          9.90408      -10.53737       -8.86022
H          8.88334      -12.37637       -6.65099
H          8.24965      -12.20538       -8.27660
H          8.05926      -10.86972       -7.14204
H         11.09129       -4.89758       -6.00116
H          9.84512       -6.71501       -8.14079
H         10.05982       -4.88028       -8.14888
