86

C         11.32373       -1.78504        5.04888
C         12.49264       -1.74255        5.76177
S         13.85221       -1.75392        4.68749
C         12.85156       -1.81223        3.30899
Cl        13.55715       -1.90640        1.75100
C         11.53239       -1.81335        3.64687
C         10.30966       -1.88228        2.89999
O         10.15690       -1.79736        1.69798
C          9.26105       -2.06364        4.00258
C          9.91079       -1.83037        5.34171
C          9.32020       -1.62827        6.54338
C         10.07788       -1.39551        7.72679
N         10.69918       -1.21397        8.68950
C          7.90879       -1.60237        6.71649
N          6.75619       -1.59335        6.84568
C          8.02980       -2.53354        3.73505
C          7.59229       -2.82610        2.41427
O          7.75284       -4.06244        1.83681
C          7.24765       -4.04583        0.55780
C          6.73802       -2.77812        0.32778
C          6.97196       -2.00703        1.48703
C          6.66924       -0.63340        1.67689
N          6.42863        0.49643        1.82684
C          7.29860       -5.16704       -0.31099
C          6.36675       -5.34244       -1.26006
C          6.36396       -6.46132       -2.15215
N          6.44402       -6.34342       -3.54207
C          6.64550       -5.11018       -4.28107
C          8.11831       -4.81572       -4.52802
C          6.46047       -7.61050       -4.16520
O          6.57506       -7.91506       -5.33403
C          6.34617       -8.52765       -3.02327
C          6.29192       -7.75189       -1.81863
C          6.19578       -8.68639       -0.68249
O          6.14051       -8.41008        0.49749
N          6.20777       -9.94519       -1.31890
C          6.17429      -11.18758       -0.57550
C          4.75493      -11.66916       -0.33004
C          6.29465       -9.81750       -2.70350
C          6.33419      -10.92770       -3.60216
C          7.36423      -11.16511       -4.43187
C          7.41572      -12.31739       -5.34009
C          6.77623      -13.51375       -5.00067
C          6.85026      -14.61676       -5.84427
F          6.26561      -15.75570       -5.44411
C          7.53976      -14.56154       -7.06150
C          8.23293      -13.38939       -7.37176
C          8.16417      -12.28442       -6.52320
F          8.85536      -11.19012       -6.87431
C          7.64950      -15.76270       -7.89640
C          7.74394      -15.87567       -9.23304
C          8.27569      -17.22144       -9.71597
O          8.31752      -18.27823       -9.11744
C          8.80550      -16.89040      -11.00833
C          9.46735      -17.58591      -11.97262
S          9.85982      -16.59609      -13.30357
C          9.10915      -15.20873      -12.58669
C          8.57734      -15.53684      -11.36907
C          7.76074      -14.89765      -10.36219
C          7.01089      -13.78472      -10.54748
C          7.21308      -12.92052      -11.66512
N          7.41121      -12.21147      -12.56013
C          5.91098      -13.44687       -9.71988
N          4.95359      -13.15637       -9.11883
Cl         9.90068      -19.24225      -11.98681
H         12.67474       -1.72151        6.82779
H          7.31389       -2.77727        4.51060
H          6.28396       -2.44944       -0.59717
H          8.11300       -5.87509       -0.17870
H          5.54330       -4.64199       -1.37887
H          6.17932       -4.28050       -3.74036
H          6.13619       -5.19667       -5.24828
H          8.66759       -4.70608       -3.58759
H          8.23336       -3.88501       -5.09358
H          8.58830       -5.62297       -5.09946
H          6.66385      -11.02133        0.39083
H          6.75593      -11.95069       -1.10431
H          4.19418      -10.94317        0.26769
H          4.76705      -12.62049        0.21080
H          4.21513      -11.81600       -1.27084
H          5.46011      -11.57302       -3.57382
H          8.22306      -10.49571       -4.45605
H          6.22508      -13.61451       -4.07107
H          8.85850      -13.31285       -8.25456
H          7.75797      -16.66952       -7.29089
H          9.10556      -14.27782      -13.13788
