100

C         -1.32704       -0.84411        1.56097
C         -2.46124       -0.69997        0.83121
C         -2.53989       -1.07604       -0.53813
N         -2.60119       -1.40009       -1.65322
C         -3.68948       -0.28574        1.42706
N         -4.69195        0.01598        1.93432
C         -0.07561       -1.51188        1.12927
C          0.55981       -2.02430        2.27289
C          1.77480       -2.68385        2.23233
C          2.41785       -2.79477        0.99366
C          1.81192       -2.24834       -0.17620
C          0.55451       -1.61857       -0.10017
C          2.50026       -2.31899       -1.39555
C          3.76128       -2.91196       -1.46929
C          4.34609       -3.45499       -0.32874
C          3.67758       -3.40090        0.89471
C         -0.15816       -1.60115        3.49254
O          0.10359       -1.89549        4.63899
C         -1.18490       -0.62776        3.00661
C         -1.49704        0.39377        3.81983
C         -1.99796        1.62081        3.31213
S         -3.03452        2.61397        4.25920
C         -3.14586        3.68999        2.91001
N         -2.39738        3.31427        1.88990
N         -1.72857        2.13738        2.12721
C         -3.99636        4.82298        2.99094
C         -4.48924        5.38682        1.87793
C         -5.32672        6.53460        1.96267
N         -5.71830        7.16656        3.06996
C         -6.38875        8.30837        2.72477
C         -6.44364        8.55394        1.36722
S         -5.83268        7.29872        0.46394
C         -6.77563        9.95117        1.08884
C         -6.07668       10.57420        2.36630
C         -6.62695        9.60269        3.55052
C         -8.14999        9.84981        3.80165
C         -8.85049        9.00388        4.85956
C         -5.74199        9.67010        4.82142
C         -6.10035        8.76660        6.00443
N         -6.23438       12.05972        2.30325
C         -6.48385       12.44036        0.86748
S         -6.11320       10.97729       -0.16822
C         -5.18633       12.85133        2.84374
C         -4.06264       12.37766        3.50306
N         -3.05686       13.12968        4.00436
C         -3.11084       14.43559        3.76558
N         -4.15711       15.05121        3.19802
C         -5.16443       14.24403        2.77022
C         -1.99602       15.27896        4.20989
C         -0.69176       14.96411        4.31869
C          0.42719       15.79621        4.84856
C          0.52166       17.14989        4.85573
C          1.68197       17.84786        5.29437
N          2.62063       18.42782        5.65624
C         -0.51353       18.00087        4.36020
N         -1.34138       18.70385        3.96558
C          1.53607       14.85098        5.19298
C          1.22473       13.59782        4.65834
C         -0.09648       13.61083        4.02065
O         -0.51745       12.69348        3.34907
C          2.05328       12.48947        4.75132
C          3.25807       12.62118        5.44313
C          3.59560       13.86978        6.03439
C          2.72435       14.97739        5.90475
C          4.80048       13.97200        6.74702
C          5.65576       12.87434        6.87123
C          5.32283       11.65740        6.28367
C          4.12987       11.53055        5.57333
H          2.23079       -3.04383        3.15028
H          0.12467       -1.18025       -0.99660
H          2.06700       -1.89779       -2.30099
H          4.28929       -2.94471       -2.41917
H          5.32956       -3.91424       -0.38911
H          4.15917       -3.82281        1.77460
H         -1.22352        0.35762        4.87244
H         -4.25038        5.21586        3.97144
H         -4.23885        4.99343        0.89514
H         -7.86014       10.09597        1.08541
H         -4.99873       10.34967        2.26326
H         -8.71868        9.66440        2.88436
H         -8.30787       10.90649        4.04717
H         -8.55460        7.95257        4.80977
H         -9.93589        9.04133        4.71846
H         -8.67090        9.39534        5.86292
H         -5.72907       10.70014        5.19518
H         -4.71098        9.41633        4.54699
H         -6.79045        9.27213        6.68780
H         -5.21030        8.54345        6.60145
H         -6.53078        7.80937        5.69970
H         -5.90731       13.28997        0.48918
H         -7.54922       12.67410        0.75648
H         -3.86655       11.32429        3.64788
H         -5.98823       14.79352        2.32063
H         -2.36497       16.25871        4.48485
H          1.74822       11.54695        4.30455
H          3.00902       15.90720        6.38707
H          5.08734       14.91165        7.21559
H          6.58465       12.97074        7.42825
H          5.99001       10.80443        6.37958
H          3.88471       10.56971        5.12445
