80

C         -1.32763        1.46503       -1.75024
C         -1.17453        0.74107       -2.92003
F         -0.98574        1.39850       -4.07217
C         -1.21841       -0.65770       -2.91552
F         -1.08836       -1.28440       -4.09554
C         -1.40737       -1.39719       -1.73025
C         -1.55364       -0.63165       -0.55625
C         -1.52002        0.76669       -0.57104
F         -1.67300        1.44760        0.57271
F         -1.71645       -1.23262        0.63314
C         -1.44634       -2.88653       -1.71549
C         -0.70653       -3.65713       -2.62803
C         -0.76022       -5.06374       -2.60083
N          0.01205       -5.76938       -3.60537
O          1.23876       -5.59420       -3.58702
O         -0.62044       -6.41931       -4.44553
C         -1.52721       -5.76450       -1.66561
C         -2.25858       -5.00821       -0.74789
C         -2.22497       -3.60269       -0.78277
C         -1.60134       -7.22640       -1.59203
C         -0.80809       -7.94978       -0.78721
C         -0.85497       -9.38546       -0.73379
N         -1.09786      -10.10843        0.43421
C         -1.41856       -9.55834        1.73506
C         -2.91688       -9.38463        1.92779
C         -1.13373      -11.49913        0.18769
O         -1.37311      -12.42200        0.93945
C         -0.83255      -11.57985       -1.25069
C         -0.67780      -10.24038       -1.74423
C         -0.40091      -10.32663       -3.18492
O         -0.23181       -9.40600       -3.95480
N         -0.41607      -11.71867       -3.42760
C         -0.26521      -12.22958       -4.77333
C          1.18674      -12.23367       -5.22446
C         -0.66466      -12.43986       -2.25799
C         -0.81567      -13.86492       -2.14492
C         -0.00131      -14.80667       -2.65031
C         -0.18797      -16.22609       -2.48660
C         -0.82931      -16.76942       -1.38858
S         -0.99046      -18.46416       -1.49150
C         -0.17646      -18.50125       -2.99190
C          0.24456      -17.24999       -3.41282
C          1.02187      -17.04086       -4.63449
O          1.82091      -16.11674       -4.74669
O          0.74030      -17.97113       -5.61947
C          1.40452      -17.74183       -6.82910
C          1.21848      -18.48124       -7.92482
C          1.92469      -18.20342       -9.19376
C          3.21519      -17.65137       -9.24807
F          3.88449      -17.36525       -8.12074
C          3.84169      -17.38886      -10.46599
F          5.06543      -16.84401      -10.48139
C          3.21587      -17.68466      -11.66651
C          1.95085      -18.25447      -11.63067
C          1.31278      -18.51620      -10.41585
F          0.08748      -19.06461      -10.43208
F          1.33843      -18.54969      -12.78522
H         -1.29753        2.54827       -1.75734
H         -0.07594       -3.18089       -3.37802
H         -2.87362       -5.49852        0.00564
H         -2.83674       -3.07625       -0.05059
H         -2.33622       -7.69583       -2.24410
H         -0.07673       -7.46639       -0.14183
H         -0.89848       -8.60517        1.87414
H         -1.04210      -10.24840        2.49913
H         -3.33711       -8.70641        1.17831
H         -3.12683       -8.97278        2.91973
H         -3.43886      -10.34348        1.84017
H         -0.83430      -11.57420       -5.44459
H         -0.70611      -13.22702       -4.85789
H          1.61242      -11.22504       -5.19601
H          1.26443      -12.60524       -6.25068
H          1.80291      -12.86792       -4.58114
H         -1.66712      -14.16594       -1.53506
H          0.86377      -14.48687       -3.22828
H         -1.22107      -16.25401       -0.52166
H         -0.01901      -19.45517       -3.47881
H          2.08071      -16.89696       -6.80184
H          0.50477      -19.30217       -7.92607
H          3.70758      -17.47804      -12.61014
