101

C          2.22499        1.93552       -1.03219
C          3.33431        2.64777       -1.32365
C          3.82542        2.77081       -2.65597
N          4.20670        2.88381       -3.74034
C          4.12996        3.25814       -0.31342
N          4.78669        3.76893        0.49555
C          1.42086        1.11284       -1.96256
C          0.79562        0.09509       -1.22202
C         -0.12749       -0.77460       -1.77461
C         -0.51212       -0.55903       -3.10635
C          0.06563        0.51060       -3.85322
C          1.05985        1.32261       -3.28323
C         -0.41138        0.78471       -5.14176
C         -1.43149        0.01617       -5.70064
C         -1.97327       -1.04886       -4.98650
C         -1.51547       -1.33749       -3.69933
C          1.04962        0.29384        0.22518
O          0.70024       -0.41551        1.14321
C          1.68834        1.65129        0.29883
C          1.27072        2.47848        1.27231
C          1.18856        3.91349        1.15462
C          0.44984        4.59687        0.27333
C          0.48958        6.00787        0.41740
C          1.44480        6.45589        1.43743
O          1.89039        7.57855        1.57700
S          1.99053        4.98883        2.28764
C         -0.40574        6.48791       -0.43464
O         -1.04157        5.48632       -1.20851
C         -0.48153        4.29090       -0.81657
O         -0.70607        3.20527       -1.31098
C         -0.86926        7.82878       -0.62410
N         -1.31102        8.37608       -1.84201
C         -1.32551        7.73140       -3.14169
C         -2.62990        7.00162       -3.41666
C         -1.83173        9.67556       -1.66742
O         -2.34417       10.43141       -2.46565
C         -1.64900        9.90019       -0.23083
C         -1.06783        8.72598        0.34716
C         -0.98986        8.93553        1.80577
O         -0.66704        8.11562        2.64089
N         -1.46664       10.25311        1.95557
C         -1.57802       10.88987        3.25354
C         -2.90516       10.60649        3.93883
C         -1.89037       10.78094        0.73534
C         -2.55197       12.04126        0.59845
C         -3.81542       12.16260        0.15527
C         -4.44359       13.43286        0.10590
S         -6.14960       13.55723        0.33067
C         -5.99306       15.26520        0.14917
N         -4.75204       15.64890       -0.07646
N         -3.86384       14.59851       -0.09410
C         -7.15675       16.06871        0.23985
C         -7.07134       17.39788        0.10689
C         -8.23308       18.24814        0.15421
C         -8.22857       19.58270        0.03127
C         -9.36232       20.52292        0.09875
C        -10.64632       20.26416       -0.25421
C        -11.65363       21.26026       -0.25046
N        -12.48844       22.07341       -0.24197
C        -11.08505       18.98972       -0.71477
N        -11.45095       17.94701       -1.07982
C         -8.78323       21.85522        0.44398
C         -7.38939       21.77486        0.33076
C         -6.97348       20.41016       -0.00263
O         -5.82928       20.07029       -0.21585
C         -6.53159       22.83575        0.57389
C         -7.08881       24.05363        0.96964
C         -8.49962       24.16834        1.11765
C         -9.33663       23.05984        0.85743
C         -9.03694       25.39687        1.53085
C         -8.20766       26.48983        1.79193
C         -6.82858       26.37225        1.64524
C         -6.27126       25.16089        1.23694
H         -0.60939       -1.52530       -1.15492
H          1.44745        2.16534       -3.84776
H         -0.01275        1.62060       -5.71354
H         -1.80797        0.25569       -6.69187
H         -2.76756       -1.64689       -5.42582
H         -1.97155       -2.16050       -3.15311
H          0.76380        2.06220        2.14501
H         -0.47973        7.04177       -3.20133
H         -1.18460        8.48626       -3.92711
H         -2.83401        6.24557       -2.65525
H         -2.58067        6.49670       -4.38586
H         -3.47630        7.69479       -3.42746
H         -1.42722       11.96865        3.14296
H         -0.76609       10.51360        3.88744
H         -3.74632       10.94198        3.32506
H         -2.95342       11.13034        4.89930
H         -3.03444        9.53592        4.12883
H         -1.97418       12.90736        0.91058
H         -4.39268       11.30003       -0.16580
H         -8.11471       15.58380        0.40108
H         -6.10244       17.86114       -0.06601
H         -9.15786       17.70422        0.32645
H         -5.45762       22.70086        0.47434
H        -10.40494       23.17753        1.00811
H        -10.11182       25.51746        1.65296
H         -8.64046       27.43507        2.11025
H         -6.18442       27.22402        1.84940
H         -5.19033       25.08912        1.13130
