116

C         -9.03628      -11.72122       -2.31998
C        -10.01573      -12.70491       -2.22120
C         -9.64389      -14.07299       -2.22821
C        -10.68194      -15.06533       -2.24137
N        -11.52786      -15.85632       -2.29299
C         -8.28773      -14.45404       -2.29208
C         -7.87870      -15.82989       -2.28477
N         -7.51981      -16.93235       -2.28451
C         -7.30644      -13.47416       -2.42456
C         -7.71405      -12.14880       -2.47787
C         -6.84548      -11.03593       -2.84508
O         -5.71268      -11.19712       -3.24721
C         -7.68812       -9.79011       -2.77796
C         -9.05608      -10.22144       -2.34691
C        -10.06378       -9.44360       -1.87619
C        -11.29133       -9.98628       -1.38253
N        -12.27428      -10.43741       -0.98635
C         -9.96092       -8.02824       -1.75985
N         -9.88687       -6.87334       -1.65339
C         -7.20093       -8.58125       -3.11864
C         -5.80789       -8.35361       -3.34458
S         -4.88520       -7.91172       -1.94415
C         -3.37487       -7.88982       -2.77905
C         -3.59141       -8.13365       -4.11947
C         -4.99539       -8.38555       -4.46865
C         -5.41626       -8.65738       -5.79705
C         -6.75984       -9.00713       -6.36498
C         -4.32425       -8.58068       -6.71121
C         -2.96549       -8.34301       -6.35392
C         -2.53559       -8.13347       -5.03533
C         -2.19203       -7.60923       -2.00669
C         -1.56707       -8.67056       -1.43054
C         -0.65076       -8.43744       -0.32392
C         -0.11414       -9.29378        0.58831
C         -0.15219      -10.81099        0.67124
C         -1.58358      -11.39993        0.70149
N         -2.37583      -10.93078        1.84061
C          0.67824      -11.44898       -0.47937
N          0.72057      -12.91657       -0.42739
C          0.42159       -8.41191        1.64000
C          0.74629       -8.65053        2.92344
C          1.11496       -7.52462        3.89240
C          1.18278       -6.14277        3.24589
C          0.84454       -5.91065        1.96679
C          0.35858       -7.02082        1.19338
C         -0.32625       -7.03935        0.04195
C         -0.82421       -5.95022       -0.76072
C         -1.73227       -6.23268       -1.71511
C          2.40067       -7.85974        4.61100
C          3.62550       -7.52663        4.17125
C          4.78368       -7.85906        4.91786
S          5.35322       -6.70778        6.05548
C          6.64348       -7.71761        6.62796
C          6.54420       -8.95856        6.01541
C          5.60793       -8.96691        4.89704
C          5.49787      -10.03074        3.97092
C          4.62774      -10.12689        2.75409
C          6.36592      -11.10333        4.30418
C          7.21515      -11.13284        5.44688
C          7.32249      -10.07190        6.36415
C          7.49191       -7.10588        7.60259
C          8.78778       -7.34214        7.84569
C          9.32309       -6.78195        9.13105
O          8.94548       -5.81277        9.75229
C         10.36036       -7.73464        9.55787
C         10.94835       -7.78316       10.81207
C         11.76551       -8.87935       11.10570
C         11.95061       -9.89683       10.14158
C         11.35411       -9.80373        8.86182
C         10.57350       -8.69856        8.55722
C          9.79704       -8.28223        7.35336
C         10.12148       -8.54227        6.06308
C          9.51321       -7.85589        4.96956
N          9.06456       -7.28090        4.06723
C         11.13763       -9.47710        5.71501
N         11.95233      -10.26734        5.47598
C         12.72221      -11.06967       10.44515
N         13.32743      -12.03170       10.67598
C         12.36466       -8.95836       12.40930
N         12.83573       -9.00523       13.46673
H        -11.07605      -12.46392       -2.18411
H         -6.25203      -13.72388       -2.53026
H         -7.81414       -7.68770       -3.13573
H         -7.52615       -9.18826       -5.61394
H         -6.67353       -9.92538       -6.95954
H         -7.10804       -8.20676       -7.02612
H         -4.53304       -8.73037       -7.77311
H         -2.22137       -8.33145       -7.14975
H         -1.49437       -7.98149       -4.78301
H         -1.87559       -9.68283       -1.65363
H          0.33935      -11.12024        1.60397
H         -1.54226      -12.49310        0.75922
H         -2.12361      -11.17048       -0.21951
H         -1.97476      -11.30205        2.69945
H         -3.31422      -11.31845        1.76746
H          1.71048      -11.07995       -0.44031
H          0.26915      -11.16112       -1.45408
H          1.12280      -13.22637        0.45609
H          1.33879      -13.26523       -1.16060
H          0.66355       -9.64794        3.34103
H          0.31981       -7.46283        4.64979
H          1.51905       -5.31568        3.86722
H          0.91078       -4.92152        1.53073
H         -0.50217       -4.93567       -0.55837
H         -2.16117       -5.43068       -2.30886
H          2.28245       -8.40449        5.54820
H          3.76300       -6.99423        3.23458
H          3.61165      -10.41655        3.03529
H          5.01580      -10.87633        2.05543
H          4.60537       -9.17906        2.20841
H          6.38177      -11.97774        3.65022
H          7.81569      -12.02868        5.60903
H          7.94804      -10.15351        7.23960
H          7.00368       -6.35740        8.23350
H         10.73924       -7.00716       11.54626
H         11.49024      -10.62054        8.15479
