117

C         -0.59656      -17.15326       -9.10697
C         -0.03040      -17.92384      -10.11588
C          1.03465      -18.80280       -9.81331
C          1.60350      -19.57634      -10.88027
N          2.05648      -20.18704      -11.75845
C          1.53567      -18.89976       -8.49717
C          2.63010      -19.76964       -8.17034
N          3.51812      -20.45924       -7.88939
C          0.98150      -18.11087       -7.48228
C         -0.05684      -17.25504       -7.81487
C         -0.68134      -16.27743       -6.91135
O         -0.46682      -16.21719       -5.72079
C         -1.56112      -15.42152       -7.78013
C         -1.69084      -16.13668       -9.07589
C         -2.70399      -16.02991       -9.97178
C         -2.79531      -16.85578      -11.12863
N         -2.84788      -17.53755      -12.06555
C         -3.79839      -15.13374       -9.79262
N         -4.68176      -14.39588       -9.65285
C         -1.96779      -14.18277       -7.45490
C         -1.71331      -13.56534       -6.20023
S         -2.87537      -13.68261       -4.94748
C         -1.94741      -12.72497       -3.86509
C         -0.79645      -12.27206       -4.48085
C         -0.65358      -12.76804       -5.81296
C         -2.37268      -12.45487       -2.51046
C         -2.10167      -11.33564       -1.74733
C         -2.65713      -11.41900       -0.43089
C         -3.33318      -12.60543       -0.20600
S         -3.28233      -13.58844       -1.61100
C         -4.01061      -13.02223        1.00720
S         -4.80575      -14.53927        1.14592
C         -5.35381      -14.23276        2.73994
C         -4.88012      -13.01198        3.18288
C         -4.12116      -12.31728        2.19176
C         -6.17290      -15.20959        3.37222
C         -7.06013      -14.86950        4.31865
C         -7.85909      -15.86837        4.93422
S         -7.25199      -16.63203        6.34024
C         -8.66681      -17.58362        6.54981
C         -9.55221      -17.38633        5.49987
C         -9.14344      -16.30121        4.64897
O         -9.84994      -15.73122        3.63291
C        -11.15100      -15.28648        4.02757
C        -11.77639      -14.48846        2.89724
O        -10.75165      -18.02439        5.49430
N        -11.11866      -18.63904        4.26340
O        -12.28916      -19.02614        4.27002
O        -10.26451      -18.74879        3.38252
C         -8.74454      -18.35539        7.74356
C         -9.35763      -19.54474        7.80793
C         -9.48069      -20.24683        9.04187
S        -10.28542      -21.76437        9.05150
C        -10.08686      -21.97869       10.73824
C         -9.41294      -20.90446       11.28742
C         -9.07155      -19.91664       10.32194
C        -10.58105      -23.15553       11.41532
C        -11.26648      -24.23249       10.88608
C        -11.57344      -25.22788       11.86278
C        -11.11172      -24.89953       13.12276
S        -10.34842      -23.36481       13.09475
C        -11.21084      -25.68984       14.33077
S        -10.57585      -25.14936       15.82569
C        -11.04511      -26.56446       16.67236
C        -11.66768      -27.44625       15.80829
C        -11.77662      -26.94190       14.47569
C        -10.75140      -26.74593       18.05707
C        -10.65656      -25.71308       18.91094
C        -10.32193      -25.86707       20.30744
C        -10.21162      -24.89318       21.22182
C         -9.51276      -25.23056       22.50347
O         -9.30838      -26.32315       22.98681
C         -9.03255      -23.94604       23.03701
C         -8.26164      -23.77542       24.17553
C         -7.85488      -22.47661       24.49876
C         -8.17758      -21.39932       23.64268
C         -8.96113      -21.61011       22.48645
C         -9.43538      -22.88488       22.20895
C        -10.38594      -23.43335       21.19771
C        -11.41913      -22.73781       20.65973
C        -12.55047      -23.38746       20.08361
N        -13.49969      -23.90018       19.65761
C        -11.53421      -21.32207       20.76750
N        -11.59717      -20.16710       20.86367
C         -7.73071      -20.06622       23.92828
N         -7.37146      -18.98297       24.13987
C         -7.12831      -22.26975       25.71895
N         -6.56162      -22.11817       26.71860
H         -0.36540      -17.85579      -11.14982
H          1.36292      -18.14039       -6.46264
H         -2.50422      -13.55612       -8.15925
H         -0.06792      -11.63648       -3.99224
H          0.19183      -12.54181       -6.45090
H         -1.53745      -10.48428       -2.10836
H         -2.55367      -10.63468        0.30886
H         -5.07079      -12.62058        4.17479
H         -3.68713      -11.33887        2.35469
H         -6.08904      -16.24530        3.04485
H         -7.18715      -13.84518        4.65236
H        -11.09070      -14.66561        4.92898
H        -11.80500      -16.13763        4.22600
H        -11.22224      -13.56174        2.72157
H        -12.81348      -14.23483        3.13925
H        -11.76492      -15.05737        1.96162
H         -8.28120      -17.92470        8.62789
H         -9.78263      -20.00397        6.91961
H         -9.16741      -20.81268       12.33899
H         -8.54845      -19.00398       10.57934
H        -11.53580      -24.32236        9.84067
H        -12.09819      -26.14596       11.63060
H        -12.04297      -28.41470       16.11708
H        -12.24137      -27.49102       13.66629
H        -10.61783      -27.76716       18.40529
H        -10.80192      -24.70323       18.54298
H        -10.04778      -26.88264       20.60371
H         -8.00017      -24.63151       24.79467
H         -9.18358      -20.76091       21.84352
