126

C          0.58101       -4.16736       -6.61221
C          1.92212       -4.17948       -6.98099
C          2.46194       -5.32028       -7.62245
C          3.84988       -5.29886       -7.99427
N          4.97162       -5.26239       -8.28359
C          1.65706       -6.45248       -7.87788
C          2.18857       -7.62914       -8.50969
N          2.60184       -8.58561       -9.01024
C          0.31027       -6.44490       -7.49646
C         -0.18866       -5.31194       -6.87164
C         -1.54649       -5.15360       -6.32711
O         -2.47518       -5.89523       -6.56186
C         -1.50604       -3.90004       -5.49818
C         -0.28566       -3.16590       -5.91549
C         -0.08028       -1.83015       -5.84188
C          1.07596       -1.20447       -6.38681
N          2.02573       -0.71704       -6.83846
C         -1.04175       -0.93718       -5.28370
N         -1.82260       -0.21375       -4.82484
C         -2.32093       -3.66430       -4.46246
C         -3.42472       -4.53314       -4.02142
C         -3.18787       -5.56518       -3.09907
C         -4.24961       -6.37353       -2.70059
C         -5.53878       -6.16132       -3.23844
C         -5.78527       -5.12290       -4.12531
C         -4.72203       -4.30502       -4.51552
C         -6.43437       -7.18171       -2.74917
C         -5.73334       -8.03859       -1.88591
C         -4.26622       -7.57936       -1.72541
C         -3.25379       -8.66536       -2.18891
C         -3.26204       -9.98554       -1.41711
C         -4.07806       -7.11962       -0.25277
C         -2.69174       -6.63094        0.15008
C         -6.38311       -9.11118       -1.28389
C         -7.72354       -9.39996       -1.60184
C         -8.40239       -8.52771       -2.47257
C         -7.77131       -7.40739       -3.03013
C         -8.37375      -10.61449       -1.07143
S         -7.41504      -12.04966       -0.90297
C         -8.71757      -12.98975       -0.30665
C         -9.85476      -12.22527       -0.24039
C         -9.66982      -10.89035       -0.68413
C        -10.86729      -10.09509       -0.62082
O        -11.00270       -8.91913       -0.91511
S        -12.19746      -11.10467       -0.03228
C        -11.18745      -12.53490        0.19741
O        -11.58984      -13.58635        0.66859
C         -8.47376      -14.34187        0.03432
C         -8.58578      -15.29652       -0.89948
C         -8.27147      -16.70814       -0.65359
C         -7.85263      -17.48551       -1.73952
C         -7.58985      -18.83138       -1.53886
C         -7.77704      -19.42147       -0.27068
C         -8.18377      -18.66467        0.81186
C         -8.43203      -17.30564        0.61317
C         -7.56548      -20.84388       -0.37276
C         -7.24883      -21.16142       -1.70691
C         -7.16339      -19.88436       -2.56603
C         -8.10291      -19.94608       -3.79573
C         -9.58843      -20.11393       -3.48734
C         -5.67678      -19.67664       -2.99504
C         -5.38536      -18.45752       -3.87035
C         -7.09169      -22.48142       -2.09815
C         -7.16292      -23.49778       -1.13178
C         -7.49717      -23.16597        0.19697
C         -7.70436      -21.83775        0.58141
C         -6.99532      -24.91790       -1.47902
C         -6.23691      -25.45592       -2.44618
C         -6.53028      -26.86609       -2.85179
O         -7.09169      -27.73406       -2.21936
C         -6.06943      -26.96898       -4.24708
C         -6.22225      -28.07040       -5.07282
C         -5.76414      -27.96620       -6.39093
C         -5.20734      -26.75278       -6.85389
C         -5.07341      -25.64596       -5.98813
C         -5.46893      -25.76734       -4.66264
C         -5.34272      -24.89050       -3.46427
C         -4.37787      -23.95697       -3.27434
C         -4.00798      -23.50397       -1.97244
N         -3.63863      -23.17039       -0.92489
C         -3.60352      -23.42673       -4.34368
N         -3.01920      -22.98331       -5.24240
C         -4.74568      -26.61654       -8.20841
N         -4.37206      -26.48439       -9.29869
C         -5.86691      -29.11373       -7.24621
N         -5.94191      -30.05939       -7.91167
H          2.58371       -3.34093       -6.77357
H         -0.33467       -7.30861       -7.65582
H         -2.19851       -2.80347       -3.81020
H         -2.18919       -5.73226       -2.71103
H         -6.77823       -4.95024       -4.52714
H         -4.90994       -3.49876       -5.22124
H         -2.23581       -8.25963       -2.13231
H         -3.41809       -8.90302       -3.24897
H         -3.23338       -9.83518       -0.33458
H         -2.39158      -10.59054       -1.69127
H         -4.13867      -10.58968       -1.66730
H         -4.33652       -7.94302        0.42573
H         -4.79466       -6.31840       -0.02515
H         -1.95259       -7.43604        0.11437
H         -2.72378       -6.26041        1.18087
H         -2.34312       -5.80418       -0.47069
H         -5.84132       -9.73273       -0.57878
H         -9.43718       -8.70932       -2.74964
H         -8.32768       -6.74776       -3.68788
H         -8.13725      -14.55914        1.04319
H         -8.88304      -15.04839       -1.91712
H         -7.75015      -17.04938       -2.72818
H         -8.34136      -19.11000        1.78809
H         -8.78577      -16.72276        1.45963
H         -7.79317      -20.76850       -4.45375
H         -8.00640      -19.02792       -4.38623
H         -9.79101      -21.03823       -2.94006
H        -10.15467      -20.14857       -4.42390
H         -9.97531      -19.27183       -2.90597
H         -5.33167      -20.55983       -3.54916
H         -5.03465      -19.61101       -2.10556
H         -5.90684      -18.51105       -4.83010
H         -4.31361      -18.40176       -4.08835
H         -5.65425      -17.52104       -3.37767
H         -6.93122      -22.69865       -3.14633
H         -7.61191      -23.94532        0.94912
H         -7.98017      -21.60283        1.60452
H         -7.64305      -25.58276       -0.90194
H         -6.67624      -28.98288       -4.69037
H         -4.65098      -24.72480       -6.38263
