129

C         -3.16596       -0.23657        4.11549
C         -2.41363        0.47071        5.04347
C         -1.03819        0.17184        5.19389
C         -0.27973        0.92026        6.16049
N          0.31892        1.53068        6.93597
C         -0.42696       -0.84712        4.42859
C          0.94968       -1.21124        4.61464
N          2.05297       -1.53429        4.75808
C         -1.17919       -1.55110        3.48614
C         -2.51859       -1.21958        3.35439
C         -3.47726       -1.89664        2.47969
O         -3.17232       -2.56358        1.51595
C         -4.82944       -1.52526        3.01387
C         -4.61691       -0.25932        3.75610
C         -5.50689        0.74954        3.91241
C         -5.14447        1.99367        4.50208
N         -4.81661        2.99852        4.97932
C         -6.84155        0.66620        3.41954
N         -7.92976        0.58450        3.02634
C         -5.90893       -2.33121        3.00351
C         -6.01332       -3.70279        2.45564
C         -7.24954       -4.15664        1.95597
C         -7.34660       -5.46764        1.49438
C         -6.21119       -6.30309        1.46680
C         -5.00465       -5.88571        1.98111
C         -4.93147       -4.60670        2.52243
C         -6.56468       -7.59260        0.93828
C         -7.94857       -7.65061        0.74022
C         -8.56692       -6.26300        1.00048
C         -9.68842       -6.34848        2.07677
C         -9.26171       -6.84620        3.46181
C         -9.13331       -5.68008       -0.33220
C         -8.12137       -5.46535       -1.46540
C         -8.56089       -8.84577        0.36647
C         -7.78477       -9.99665        0.08890
C         -6.37685       -9.84023        0.17402
C         -5.76604       -8.67039        0.63268
C         -8.39559      -11.32527       -0.25866
C         -7.80715      -12.58468        0.05480
C         -8.38544      -13.85501       -0.32724
N         -7.69393      -14.99170       -0.06621
C         -6.51291      -14.94299        0.59870
C         -5.99794      -13.75082        1.01525
N         -6.64355      -12.58976        0.74630
C         -4.76452      -13.63335        1.73231
N         -3.75795      -13.55449        2.30791
C         -5.87688      -16.20058        0.84843
N         -5.35169      -17.21396        1.06842
C         -9.65124      -13.97171       -0.95863
C        -10.29988      -12.72914       -1.24224
C         -9.65208      -11.40490       -0.93001
N        -10.39252      -10.37023       -1.36870
S        -11.79513      -10.96293       -1.98781
N        -11.52261      -12.57088       -1.78354
C        -10.29848      -15.27388       -1.32982
C        -10.10817      -16.45233       -0.57039
C        -10.63745      -17.66558       -1.00663
C        -11.45146      -17.72408       -2.14801
C        -11.71332      -16.58853       -2.88206
C        -11.10819      -15.38985       -2.49121
C        -11.79675      -19.09491       -2.42392
C        -11.16207      -19.93979       -1.49938
C        -10.42058      -19.08625       -0.45411
C         -8.91327      -19.46379       -0.39539
C         -8.14048      -19.30164       -1.70649
C        -11.06422      -19.23792        0.95291
C        -12.53179      -18.81337        1.05458
C        -11.21044      -21.32559       -1.65589
C        -11.89930      -21.88493       -2.75702
C        -12.58275      -21.00707       -3.61067
C        -12.54609      -19.61925       -3.45149
C        -11.82201      -23.35667       -2.93750
C        -11.86880      -24.17101       -4.00987
C        -11.24552      -25.53022       -3.82361
O        -11.05144      -26.13935       -2.79325
C        -10.82941      -25.97008       -5.16769
C        -10.15539      -27.14578       -5.46690
C         -9.86865      -27.41670       -6.81031
C        -10.22674      -26.48448       -7.80842
C        -10.88352      -25.28057       -7.46659
C        -11.22121      -25.03528       -6.13964
C        -12.08159      -24.01771       -5.45704
C        -13.17116      -23.48716       -6.06642
C        -14.35740      -23.19569       -5.33655
N        -15.33719      -22.97749       -4.75509
C        -13.27173      -23.31690       -7.47880
N        -13.32364      -23.15490       -8.62416
C         -9.98210      -26.75539       -9.19934
N         -9.81016      -26.96341      -10.32636
C         -9.23239      -28.66062       -7.14087
N         -8.72806      -29.67405       -7.39198
H         -2.85552        1.23284        5.68196
H         -0.75313       -2.35936        2.89440
H         -6.82482       -2.02039        3.50219
H         -8.11824       -3.50430        1.94123
H         -4.14009       -6.53948        2.00082
H         -3.99008       -4.33528        2.98907
H        -10.48735       -7.01166        1.71927
H        -10.14940       -5.36141        2.21011
H         -8.73166       -7.80215        3.41770
H        -10.14627       -6.99328        4.09213
H         -8.62222       -6.11810        3.97043
H         -9.62076       -4.71495       -0.14129
H         -9.91706       -6.34847       -0.71347
H         -7.49490       -4.58726       -1.27743
H         -8.64785       -5.29061       -2.41065
H         -7.46793       -6.32890       -1.61757
H         -9.64426       -8.86063        0.30808
H         -5.70519      -10.65027       -0.09701
H         -4.68757       -8.62048        0.73574
H         -9.51681      -16.44846        0.33941
H        -12.32770      -16.62254       -3.77514
H        -11.27704      -14.53665       -3.14490
H         -8.80681      -20.50789       -0.07146
H         -8.40929      -18.85616        0.36713
H         -8.50308      -19.98866       -2.47712
H         -7.08008      -19.52088       -1.54344
H         -8.20463      -18.28167       -2.09614
H        -10.49770      -18.64515        1.68385
H        -10.98999      -20.28324        1.27995
H        -12.64668      -17.73493        0.90499
H        -12.92363      -19.04643        2.04988
H        -13.15991      -19.33212        0.32473
H        -10.67105      -21.95843       -0.95447
H        -13.16115      -21.35114       -4.44499
H        -13.07491      -18.97621       -4.14684
H        -11.54378      -23.84146       -1.99479
H         -9.88750      -27.84085       -4.67299
H        -11.13843      -24.58740       -8.26523
