115

C        -11.83950       -9.75806       -7.65508
C        -13.01569      -10.12696       -8.29264
C        -14.24962       -9.58992       -7.85577
C        -15.44941       -9.99662       -8.53241
N        -16.40912      -10.33879       -9.08485
C        -14.30108       -8.68874       -6.77057
C        -15.54067       -8.14357       -6.29658
N        -16.52765       -7.69089       -5.88797
C        -13.12367       -8.33068       -6.11058
C        -11.93360       -8.88331       -6.56178
C        -10.62932       -8.69972       -5.92536
O        -10.42331       -7.89327       -5.04400
C         -9.69782       -9.67272       -6.61010
C        -10.40347      -10.12792       -7.83231
C         -9.83341      -10.60571       -8.97213
C        -10.59076      -10.86504      -10.15123
N        -11.22921      -11.05956      -11.09926
C         -8.42996      -10.79735       -9.10151
N         -7.28374      -10.95348       -9.19748
C         -8.56451      -10.12839       -6.04165
C         -8.02253       -9.74321       -4.74281
C         -7.69541       -8.46398       -4.48375
C         -7.29791       -8.03055       -3.17437
C         -7.09681       -8.96975       -2.06580
C         -7.30018      -10.28367       -2.14765
S         -7.84205      -11.07464       -3.60205
C         -6.71645       -8.19592       -0.95170
C         -6.69530       -6.86583       -1.29970
C         -6.37473       -6.01922       -0.22645
C         -6.13797       -6.77490        0.91497
S         -6.33006       -8.47992        0.64746
C         -7.06726       -6.77390       -2.69363
C         -7.15698       -5.53389       -3.43089
C         -8.27453       -5.09308       -4.03272
C         -8.32244       -3.87633       -4.77361
N         -9.48283       -3.12587       -4.81756
C        -10.76863       -3.36021       -4.17736
C        -11.90328       -3.53041       -5.17890
N         -9.36079       -1.99650       -5.54610
C         -8.13045       -2.05364       -6.05848
C         -7.42142       -3.20128       -5.59611
C         -6.03528       -3.60733       -5.98473
C         -4.96469       -3.01193       -5.08241
C         -7.69544       -0.99813       -7.02848
C         -7.05059        0.20950       -6.34744
C         -6.65555        1.26927       -7.34039
C         -5.44387        1.37109       -7.91403
C         -5.01886        2.40032       -8.86671
C         -5.84143        3.39283       -9.26636
C         -5.44659        4.40279      -10.20739
C         -4.18305        4.31480      -10.94396
C         -3.22537        3.42415      -10.69192
S         -3.34835        2.23085       -9.43038
C         -4.18819        5.37275      -11.87076
C         -5.33189        6.12076      -11.71260
C         -5.38941        7.21773      -12.58800
C         -4.27303        7.22264      -13.41590
S         -3.17711        5.92052      -13.08018
C         -6.11276        5.51101      -10.65466
C         -7.39828        6.01026      -10.19353
C         -7.63442        6.35604       -8.91299
C         -8.88421        6.89222       -8.41270
C         -9.25155        7.33509       -7.19434
C        -10.72023        7.69352       -7.07838
O        -11.56815        7.70134       -7.94746
C        -10.98386        7.98238       -5.66557
C        -12.21213        8.35459       -5.12241
C        -12.30554        8.52113       -3.73571
C        -11.18193        8.25916       -2.93058
C         -9.94936        7.89003       -3.51961
C         -9.82546        7.79578       -4.90670
C         -8.66720        7.52978       -5.84095
C         -7.37027        7.66957       -5.46040
C         -6.24405        7.59822       -6.32484
N         -5.26739        7.54973       -6.94499
C         -6.98269        8.00548       -4.12833
N         -6.67234        8.29191       -3.04763
C        -11.25556        8.34193       -1.49628
N        -11.29229        8.38492       -0.33721
C        -13.55209        8.95962       -3.16659
N        -14.55426        9.32718       -2.72243
H        -13.02330      -10.84307       -9.11167
H        -13.12672       -7.66220       -5.25133
H         -7.99655      -10.93177       -6.50480
H         -7.80961       -7.69917       -5.24556
H         -7.14709      -10.91707       -1.27949
H         -6.32520       -4.93854       -0.25333
H         -5.87139       -6.42345        1.90247
H         -6.23789       -4.96233       -3.44752
H         -9.17858       -5.69395       -3.94848
H        -10.95989       -2.49882       -3.52753
H        -10.70783       -4.24233       -3.53703
H        -12.02697       -2.63601       -5.79954
H        -12.84887       -3.70518       -4.65584
H        -11.71830       -4.37778       -5.84731
H         -5.83536       -3.30205       -7.01858
H         -5.95460       -4.70049       -5.98049
H         -4.92936       -1.92311       -5.17202
H         -3.98088       -3.40629       -5.35455
H         -5.13966       -3.24069       -4.02786
H         -8.56495       -0.66938       -7.61502
H         -6.99636       -1.43225       -7.75326
H         -6.18106       -0.09387       -5.75602
H         -7.75531        0.66262       -5.63753
H         -7.44236        1.98530       -7.55848
H         -4.69331        0.62016       -7.66288
H         -6.86708        3.45055       -8.92725
H         -2.29819        3.44018      -11.25639
H         -6.17409        7.96046      -12.63772
H         -4.02877        7.92253      -14.20310
H         -8.16050        6.12406      -10.96159
H         -6.82503        6.20287       -8.21887
H         -9.65761        6.90560       -9.19006
H        -13.07232        8.51133       -5.77202
H         -9.12171        7.68042       -2.84691
