120

C         -1.02615       -4.84291      -12.38243
C          0.08021       -4.23755      -12.96523
C          0.82664       -3.28577      -12.23000
C          1.96451       -2.67934      -12.86099
N          2.88380       -2.20674      -13.38567
C          0.46846       -2.95364      -10.90510
C          1.22330       -2.00969      -10.13193
N          1.82008       -1.25646       -9.48341
C         -0.63401       -3.57120      -10.30985
C         -1.34172       -4.49847      -11.06150
C         -2.47509       -5.28834      -10.57677
O         -3.07174       -5.04279       -9.55042
C         -2.71895       -6.33822      -11.62904
C         -2.00563       -5.87440      -12.84463
C         -2.29098       -6.19588      -14.13154
C         -1.61031       -5.61200      -15.22956
N         -1.03390       -5.12145      -16.11782
C         -3.34023       -7.09276      -14.48764
N         -4.19202       -7.83165      -14.75869
C         -3.32295       -7.51940      -11.41932
C         -3.81931       -7.93897      -10.15604
O         -3.22851       -7.55949       -8.95920
C         -4.00519       -8.07963       -7.98369
C         -4.10504       -8.05870       -6.59525
C         -3.28243       -7.33027       -5.66924
O         -3.39675       -7.40216       -4.45009
N         -2.33905       -6.51215       -6.22096
C         -5.15385       -8.94499       -6.35634
O         -5.68339       -9.41467       -7.55857
C         -4.94286       -8.84386       -8.52968
C         -4.87759       -8.81247       -9.91929
C         -5.67136       -9.38097       -5.11442
C         -6.25582      -10.58338       -5.04048
C         -6.83719      -11.05379       -3.80928
C         -8.16817      -11.29438       -3.82629
C         -8.86606      -11.56459       -2.59145
C        -10.18496      -11.77142       -2.31621
C        -11.38764      -12.07384       -3.22305
C        -12.45395      -10.93732       -3.22225
N        -13.67364      -11.24182       -3.98377
C        -11.05277      -12.43208       -4.70715
N        -10.16660      -13.57897       -4.91170
C        -10.23886      -11.62233       -0.84489
C        -11.25112      -11.37223        0.00051
C        -11.01295      -10.95637        1.45659
C         -9.56380      -11.07964        1.91164
C         -8.56553      -11.42391        1.08911
C         -8.88767      -11.55351       -0.29882
C         -8.06840      -11.52214       -1.34785
C         -6.63396      -11.40659       -1.38062
C         -6.05505      -11.18178       -2.57042
C        -11.95479      -11.70223        2.35571
C        -11.69873      -12.10425        3.60930
C        -12.68214      -12.80697        4.33604
O        -13.89404      -13.15848        3.76732
C        -14.55940      -13.82040        4.73346
C        -15.77873      -14.46107        4.89277
C        -16.80831      -14.58236        3.89825
O        -17.88539      -15.12806        4.11464
N        -16.52114      -14.04292        2.67388
C        -15.71683      -14.89376        6.21850
O        -14.51034      -14.51658        6.80355
C        -13.82800      -13.86664        5.83889
C        -12.60034      -13.24360        5.65387
C        -16.68664      -15.61634        6.95409
C        -16.83759      -15.39111        8.26768
C        -17.82236      -16.05137        9.09092
C        -19.08091      -16.36555        8.75378
C        -19.78646      -17.38394        9.58642
O        -19.58172      -17.69280       10.74002
C        -20.74037      -18.02780        8.66660
C        -21.52425      -19.13033        8.95742
C        -22.31360      -19.65622        7.92883
C        -22.26415      -19.08909        6.63396
C        -21.45004      -17.96719        6.36974
C        -20.71225      -17.40845        7.40369
C        -19.85446      -16.19872        7.51447
C        -19.97089      -15.06817        6.77359
C        -19.41558      -13.82700        7.20953
N        -19.01936      -12.80610        7.59467
C        -20.75732      -15.00278        5.58829
N        -21.41951      -14.97779        4.63549
C        -23.04809      -19.63209        5.55891
N        -23.67587      -20.06001        4.68394
C        -23.15880      -20.77395        8.22493
N        -23.84056      -21.67372        8.48871
H          0.41042       -4.48643      -13.97117
H         -0.92827       -3.35804       -9.28368
H         -3.42176       -8.25967      -12.20487
H         -2.32493       -6.30595       -7.21375
H         -1.81225       -5.92376       -5.59165
H         -5.50664       -9.31133      -10.64047
H         -5.57663       -8.73877       -4.24173
H         -6.36259      -11.22543       -5.91126
H         -8.72714      -11.13107       -4.73522
H        -11.86424      -12.97155       -2.80054
H        -12.01822      -10.00719       -3.60181
H        -12.79319      -10.73472       -2.20707
H        -13.47057      -11.28752       -4.98167
H        -14.34172      -10.47870       -3.88011
H        -10.65662      -11.54721       -5.21760
H        -11.96866      -12.68464       -5.24952
H         -9.36208      -13.53086       -4.28878
H         -9.79746      -13.55396       -5.86171
H        -12.27605      -11.33608       -0.34337
H        -11.28372       -9.89346        1.52347
H         -9.31576      -10.85942        2.94448
H         -7.54468      -11.51901        1.43730
H         -6.05088      -11.48173       -0.47148
H         -4.97783      -11.05834       -2.63632
H        -12.93887      -11.89302        1.92857
H        -10.75690      -11.91224        4.10673
H        -15.64149      -13.57878        2.47295
H        -17.20938      -14.09685        1.93563
H        -11.78124      -13.12250        6.34483
H        -17.31565      -16.30639        6.40328
H        -16.17028      -14.70599        8.79246
H        -17.43954      -16.35852       10.06696
H        -21.51398      -19.56182        9.95597
H        -21.41853      -17.56517        5.35880
