97

C         -1.85765       -1.56634        2.53333
C         -1.65066       -0.89018        3.73226
C         -2.55024        0.13507        4.12490
C         -2.31871        0.80045        5.35935
N         -2.12487        1.34011        6.37496
C         -3.65933        0.47299        3.31669
C         -4.60735        1.48204        3.69677
N         -5.40147        2.28279        3.97073
C         -3.87200       -0.20908        2.12050
C         -2.97772       -1.20836        1.77029
C         -3.11864       -2.07951        0.60226
O         -3.90669       -1.89282       -0.29800
C         -2.09759       -3.16791        0.77739
C         -1.15990       -2.68967        1.82808
C          0.13078       -3.06687        2.00250
C          0.98483       -2.43892        2.95126
N          1.66227       -1.90292        3.72735
C          0.75578       -4.06317        1.19023
N          1.25340       -4.87231        0.52885
C         -2.21153       -4.38689        0.21974
C         -3.25816       -4.85490       -0.65456
C         -3.65174       -4.37031       -1.84049
C         -4.76507       -5.07340       -2.42620
C         -5.16955       -6.15721       -1.74675
S         -4.18126       -6.31925       -0.30532
O         -3.31143       -7.47388       -0.42541
O         -4.98563       -6.11099        0.88492
C         -6.21152       -7.08185       -2.10605
C         -6.92855       -6.95898       -3.23295
C         -7.90293       -7.90875       -3.61548
S         -8.20212       -8.12332       -5.31807
C         -9.35208       -9.26452       -4.98512
C         -9.55973       -9.51313       -3.64615
C         -8.71011       -8.73406       -2.83816
C        -10.65272      -10.56272       -3.42702
C        -10.09406      -11.80685       -2.73481
C        -11.84006       -9.97597       -2.66350
C        -10.99435      -10.83378       -4.89976
C        -10.21682      -10.07274       -5.74708
S        -10.47708      -10.32248       -7.36189
C        -11.70787      -11.50375       -6.99902
C        -11.88124      -11.66031       -5.62358
C        -12.33254      -12.14065       -8.10233
C        -13.59505      -12.58606       -8.04994
C        -14.22384      -13.21182       -9.17898
C        -14.42887      -12.68206      -10.39699
C        -15.09309      -13.57150      -11.32112
C        -15.39399      -14.77272      -10.80684
S        -14.82337      -14.85499       -9.14585
O        -13.71922      -15.79613       -9.07347
O        -15.96929      -14.97090       -8.26421
C        -16.03376      -15.88709      -11.45330
C        -16.97783      -15.75472      -12.39637
C        -17.62578      -16.87356      -13.02747
C        -18.35062      -17.83181      -12.43618
C        -18.72362      -19.02224      -13.25785
O        -18.63963      -19.16545      -14.45863
C        -19.17584      -20.03787      -12.29855
C        -19.70434      -21.27452      -12.62963
C        -20.15772      -22.08766      -11.58699
C        -19.97449      -21.68351      -10.24600
C        -19.40472      -20.42721       -9.94360
C        -19.06875      -19.56534      -10.97927
C        -18.74629      -18.10588      -11.04465
C        -19.11955      -17.20094      -10.10360
C        -19.37133      -15.83456      -10.43497
N        -19.66581      -14.75062      -10.72193
C        -19.47003      -17.56212       -8.77193
N        -19.74875      -17.88555       -7.69266
C        -20.41767      -22.50955       -9.15771
N        -20.77704      -23.15994       -8.26761
C        -20.86956      -23.28922      -11.91936
N        -21.47935      -24.23023      -12.21194
H         -0.82992       -1.13964        4.40110
H         -4.72866        0.00477        1.48138
H         -1.52593       -5.18970        0.49360
H         -3.22199       -3.51780       -2.35106
H         -5.21179       -4.71115       -3.34291
H         -6.35894       -7.92713       -1.43542
H         -6.75940       -6.13777       -3.92369
H         -8.69087       -8.75016       -1.75602
H         -9.75100      -11.57429       -1.71995
H         -9.23773      -12.22279       -3.28013
H        -10.85248      -12.59396       -2.66499
H        -11.55127       -9.68703       -1.64620
H        -12.65970      -10.69892       -2.59142
H        -12.23447       -9.07896       -3.15682
H        -12.58259      -12.35367       -5.17649
H        -11.74754      -12.24891       -9.01445
H        -14.20277      -12.48847       -7.15306
H        -14.14387      -11.67759      -10.68779
H        -15.32009      -13.25796      -12.33288
H        -15.71629      -16.87214      -11.11417
H        -17.28736      -14.77307      -12.75367
H        -17.46276      -16.91765      -14.10706
H        -19.81329      -21.56083      -13.67433
H        -19.29115      -20.14937       -8.89871
