109

C          0.04317        7.03149       -5.58933
C         -0.03671        8.41769       -5.49762
C         -1.26815        9.06241       -5.76787
C         -1.35433       10.48538       -5.59087
N         -1.41934       11.62912       -5.41009
C         -2.40146        8.31576       -6.15842
C         -3.64046        8.94530       -6.51878
N         -4.64785        9.42298       -6.83510
C         -2.33957        6.92173       -6.17122
C         -1.13427        6.32579       -5.83683
C         -0.94682        4.90588       -5.54040
O         -1.85260        4.09627       -5.54379
C          0.49646        4.72821       -5.12096
C          1.14538        6.03873       -5.40716
C          2.44349        6.28132       -5.70459
C          2.91037        7.56670       -6.13384
N          3.27034        8.61369       -6.48123
C          3.44006        5.26663       -5.64031
N          4.25000        4.44135       -5.54606
C          0.96778        3.62175       -4.49833
C          0.16252        2.42155       -4.15458
C          0.07096        1.92567       -2.84910
C          0.91008        2.13090       -1.65964
O          1.80917        2.95313       -1.62089
N          0.45264        1.28105       -0.66905
C         -0.71339        0.66878       -1.06357
O         -1.48851       -0.05375       -0.46764
C         -0.90792        1.00956       -2.47027
C         -1.83931        0.49936       -3.35241
C         -1.65333        0.85748       -4.68025
C         -0.63941        1.73452       -5.08314
C         -0.56141        1.82326       -6.54894
O          0.33224        2.39023       -7.15526
S         -1.85437        0.93202       -7.32368
C         -2.47671        0.38379       -5.78805
O         -3.46612       -0.31091       -5.64304
C          1.11981        1.08693        0.53170
C          0.62055        0.49469        1.62856
C          1.33905        0.30103        2.86026
S          0.99386       -1.22743        3.64403
C          2.01758       -0.92128        4.96266
C          2.62714        0.30027        4.85398
C          2.23452        1.03718        3.64716
C          2.73024        2.35471        3.41866
C          3.62811        2.80656        4.41818
C          3.99654        2.05519        5.56996
C          3.49061        0.77614        5.85730
O          3.76797        0.03353        6.96887
C          4.23639        0.76650        8.09675
C          2.23580        3.24379        2.37680
C          2.94036        4.20339        1.75466
C          2.40298        5.04229        0.66733
C          3.25042        5.48476       -0.36467
C          4.70012        5.32278       -0.62485
O          5.46042        4.71790        0.10690
N          4.99088        5.98863       -1.80757
C          3.86323        6.57127       -2.32231
O          3.67620        7.26817       -3.30114
C          2.76329        6.21462       -1.44307
C          1.42784        6.50855       -1.62158
C          0.58340        6.07849       -0.61463
C          1.04572        5.42362        0.53413
C         -0.06695        5.28226        1.49712
O          0.04090        5.05771        2.68630
S         -1.62331        5.60994        0.75051
C         -0.86316        6.22770       -0.68092
O         -1.44119        6.66434       -1.66197
C          6.27188        6.08143       -2.32457
C          6.63615        6.79021       -3.40718
C          8.01381        6.92914       -3.82409
C          8.64345        8.07304       -4.13442
C          9.98802        7.98752       -4.79713
O         10.72431        7.02815       -4.88177
C         10.23030        9.31405       -5.38920
C         11.33421        9.68218       -6.14677
C         11.37579       10.98413       -6.66095
C         10.28860       11.85958       -6.44820
C          9.17783       11.45071       -5.67528
C          9.16761       10.18444       -5.09889
C          8.25964        9.49615       -4.12579
C          7.49202       10.13674       -3.20832
C          6.96863        9.49857       -2.04495
N          6.55731        9.03483       -1.06220
C          7.26072       11.54036       -3.24393
N          7.08043       12.68655       -3.28290
C         10.28869       13.19065       -6.99432
N         10.27091       14.26489       -7.43022
C         12.54379       11.40319       -7.38478
N         13.50076       11.73187       -7.94950
H          0.81569        9.01893       -5.18435
H         -3.20971        6.30993       -6.40280
H          1.99153        3.58381       -4.12841
H         -2.61929       -0.18781       -3.03695
H          2.13908        1.46676        0.53116
H         -0.39196        0.09482        1.61271
H          2.11221       -1.64777        5.75933
H          4.04411        3.81172        4.33875
H          4.69299        2.53368        6.25532
H          4.23281        0.09471        8.96040
H          3.57867        1.61171        8.33004
H          5.26648        1.10276        7.94108
H          1.19152        3.08046        2.14679
H          3.99300        4.33793        1.99769
H          1.06497        7.04896       -2.48714
H          7.03140        5.57054       -1.73168
H          5.90917        7.33010       -4.00796
H          8.54507        5.98250       -3.95404
H         12.14393        8.97429       -6.31620
H          8.35593       12.15106       -5.54211
