111

C         -5.69282       -3.92183       -1.99422
C         -6.48673       -3.78315       -3.12490
C         -7.86952       -4.05348       -3.03019
C         -8.65415       -4.00917       -4.23393
N         -9.26013       -4.00150       -5.22250
C         -8.44759       -4.43116       -1.79533
C         -9.83286       -4.79856       -1.70041
N        -10.93740       -5.13800       -1.60645
C         -7.64808       -4.54982       -0.64957
C         -6.28790       -4.32630       -0.78679
C         -5.24585       -4.69054        0.19442
O         -5.41095       -5.00628        1.35328
C         -3.96363       -4.68851       -0.59105
C         -4.22129       -3.86551       -1.78310
C         -3.35197       -3.04354       -2.41469
C         -3.76417       -2.17813       -3.46914
N         -4.12516       -1.46475       -4.30879
C         -2.00282       -2.88200       -1.98645
N         -0.90455       -2.69727       -1.65866
C         -2.94992       -5.53778       -0.35886
C         -2.90263       -6.45427        0.79195
C         -2.28582       -6.06928        1.97185
C         -1.41132       -4.92801        2.24153
O         -1.10776       -4.14102        1.36616
N         -1.04791       -4.99560        3.55896
C         -1.58182       -6.11436        4.16415
O         -1.42470       -6.55075        5.28754
C         -2.36509       -6.81268        3.14564
C         -3.05639       -8.00833        3.21774
C         -3.62312       -8.44286        2.02247
C         -3.53055       -7.70691        0.83569
C         -4.09152       -8.43599       -0.30326
O         -3.99558       -8.07749       -1.46344
S         -4.84153       -9.93714        0.19900
C         -4.35727       -9.69858        1.86128
O         -4.59228      -10.47084        2.77137
C         -0.19022       -4.13387        4.21154
C          0.61063       -3.23299        3.62626
C          1.50867       -2.39393        4.35625
S          1.67224       -0.78218        3.75513
C          2.67491       -0.24177        5.04882
C          2.85535       -1.27931        5.95634
C          2.33205       -2.57038        5.46366
C          2.60916       -3.81352        6.10147
C          2.28335       -5.22475        5.69868
C          3.33921       -3.64549        7.30180
C          3.77258       -2.39930        7.81315
C          3.55004       -1.15434        7.18243
C          4.01611        0.07692        7.88243
C          3.20577        1.08730        4.91309
C          2.53994        2.16702        5.36065
C          2.92043        3.56003        5.05426
C          2.30591        4.24142        3.99187
C          1.30796        3.81806        2.99350
O          0.81609        2.70603        2.94271
N          1.03733        4.90461        2.17957
C          1.76723        5.99766        2.56989
O          1.82042        7.13089        2.12813
C          2.57336        5.58029        3.71165
C          3.46176        6.33835        4.44585
C          4.09531        5.67584        5.48694
C          3.84874        4.32580        5.79295
C          4.67223        3.90646        6.93613
O          4.72452        2.79065        7.39249
S          5.63965        5.22067        7.58374
C          5.06808        6.31831        6.36394
O          5.42519        7.47442        6.24842
C          0.13631        4.83325        1.13492
C         -0.23735        5.83297        0.31826
C         -1.17885        5.64705       -0.76925
C         -2.43950        5.20193       -0.67015
C         -3.17416        4.73410       -1.88896
O         -2.94396        4.99070       -3.05019
C         -4.20831        3.80490       -1.38528
C         -5.09870        3.06483       -2.14667
C         -5.95852        2.18677       -1.47390
C         -5.85511        2.02383       -0.07202
C         -4.94449        2.79668        0.67606
C         -4.16005        3.73337        0.01867
C         -3.25250        4.81315        0.48579
C         -3.44635        5.54482        1.61063
C         -2.92715        6.86822        1.73691
N         -2.57359        7.96926        1.81716
C         -4.32616        5.13189        2.64990
N         -5.04089        4.75697        3.48320
C         -6.67049        1.06560        0.62256
N         -7.30250        0.26751        1.17713
C         -6.94547        1.46528       -2.22799
N         -7.75469        0.88097       -2.81630
H         -6.05966       -3.54200       -4.09697
H         -8.05922       -4.88280        0.30159
H         -2.10373       -5.61406       -1.03792
H         -3.11771       -8.58570        4.13618
H         -0.17119       -4.27044        5.29332
H          0.57853       -3.07984        2.54899
H          2.20797       -5.33465        4.61518
H          1.36081       -5.55535        6.18471
H          3.07919       -5.90741        6.01846
H          3.59278       -4.53158        7.88702
H          4.31445       -2.41332        8.76103
H          3.97399       -0.05637        8.96926
H          3.34519        0.90709        7.66652
H          5.04581        0.30529        7.59776
H          4.11178        1.18996        4.32070
H          1.60927        2.04134        5.91150
H          3.65077        7.38410        4.22182
H         -0.28289        3.83834        0.98906
H          0.18972        6.83370        0.39567
H         -0.76248        5.84924       -1.75911
H         -5.12632        3.18197       -3.22838
H         -4.88105        2.65164        1.75304
