126

C         -1.71127        3.00941        2.06036
C         -0.74052        3.28475        1.10515
C         -0.94179        2.87399       -0.23280
C          0.12210        3.06812       -1.17942
N          1.00060        3.19002       -1.92613
C         -2.13572        2.22450       -0.61369
C         -2.38314        1.83154       -1.97048
N         -2.61366        1.50907       -3.05977
C         -3.09042        1.90688        0.35557
C         -2.83006        2.26770        1.66839
C         -3.61131        1.83863        2.83326
O         -4.55370        1.07253        2.80171
C         -2.94895        2.45531        4.02687
C         -1.82159        3.29095        3.53303
C         -1.13068        4.23368        4.21477
C         -0.15851        5.07691        3.59102
N          0.62277        5.75806        3.06910
C         -1.34651        4.51748        5.59818
N         -1.51979        4.73457        6.72225
C         -3.36384        2.17316        5.27455
C         -4.50065        1.31415        5.63972
C         -4.31856       -0.02683        5.95951
C         -3.12715       -0.87105        5.87002
O         -2.10898       -0.50593        5.30922
N         -3.42571       -2.04485        6.52726
C         -4.73967       -2.07242        6.92849
O         -5.36724       -2.93790        7.50886
C         -5.32522       -0.79900        6.52742
C         -6.60681       -0.32725        6.72330
C         -6.82695        0.98520        6.31852
C         -5.80757        1.79560        5.80028
C         -6.28542        3.14617        5.49999
O         -5.59645        4.04367        5.04055
S         -7.98690        3.32660        5.87766
C         -8.10500        1.67667        6.43516
O         -9.11496        1.15943        6.87682
C         -2.55899       -3.07857        6.78289
C         -1.40945       -3.27727        6.13235
C         -0.54754       -4.41560        6.35108
C          0.76375       -4.17366        6.60993
C          1.70784       -5.26068        6.46671
C          3.06772       -5.27506        6.52765
C          3.97533       -4.22682        7.16926
C          4.19564       -4.64028        8.66108
N          5.05224       -3.73873        9.45024
C          5.29847       -3.95588        6.41437
N          6.12120       -2.86964        6.95989
C          3.41358       -6.51410        5.80833
C          4.48554       -6.86407        5.07291
C          4.45499       -8.07402        4.13805
C          3.24759       -8.97879        4.29776
C          2.18968       -8.64123        5.04527
C          2.21558       -7.33998        5.64647
C          1.19497       -6.57318        6.02850
C         -0.21578       -6.84058        6.00495
C         -1.04349       -5.79541        6.16288
C          5.72424       -8.86667        4.22258
C          5.99829       -9.83647        5.10774
C          7.23847      -10.61929        5.11524
C          7.16915      -11.99357        5.42360
C          6.03737      -12.90012        5.72890
O          4.87731      -12.54197        5.82897
N          6.54776      -14.17880        5.86695
C          7.91329      -14.17175        5.72592
O          8.73623      -15.06837        5.78543
C          8.30312      -12.79568        5.44185
C          9.56622      -12.30490        5.18800
C          9.65146      -10.94914        4.90219
C          8.53245      -10.10454        4.85693
C          8.95919       -8.71664        4.52439
O          8.25852       -7.73203        4.40693
S         10.69715       -8.60227        4.29597
C         10.91282      -10.29231        4.62595
O         11.99847      -10.86412        4.61914
C          5.74855      -15.28257        6.12292
C          6.17579      -16.54730        6.26236
C          5.31393      -17.66740        6.55577
C          5.65786      -18.78377        7.21741
C          4.75915      -19.97792        7.08304
O          3.63591      -20.02634        6.63028
C          5.53950      -21.12862        7.56584
C          5.08198      -22.43825        7.64815
C          5.91735      -23.39370        8.23856
C          7.18793      -23.01276        8.71969
C          7.62989      -21.67454        8.60128
C          6.80859      -20.71980        8.00695
C          6.89860      -19.22943        7.87475
C          7.87662      -18.46869        8.44137
C          7.63900      -17.11489        8.85129
N          7.45120      -16.04870        9.26722
C          9.17764      -18.95881        8.67172
N         10.25410      -19.38163        8.77665
C          8.04862      -23.95869        9.37784
N          8.75216      -24.69584        9.93011
C          5.43666      -24.74072        8.37620
N          5.03319      -25.82055        8.49416
H          0.20091        3.76967        1.35806
H         -3.99919        1.36254        0.10752
H         -2.85879        2.56329        6.15167
H         -7.38233       -0.93816        7.17600
H         -2.87763       -3.77066        7.56127
H         -1.10819       -2.64629        5.29759
H          1.14667       -3.16304        6.70947
H          3.42931       -3.27270        7.19010
H          4.61581       -5.65125        8.72309
H          3.21959       -4.67941        9.16289
H          5.99030       -4.14100        9.49784
H          4.72872       -3.72803       10.41876
H          5.07926       -3.69653        5.37366
H          5.91684       -4.85603        6.43089
H          5.99753       -2.86138        7.98087
H          7.10532       -3.07782        6.79491
H          5.34950       -6.22033        4.97494
H          4.40495       -7.67505        3.11418
H          3.25116       -9.92584        3.76647
H          1.32728       -9.28828        5.14137
H         -0.58747       -7.84651        5.84859
H         -2.11846       -5.94851        6.11458
H          6.43251       -8.59070        3.44887
H          5.23689      -10.11034        5.83946
H         10.44213      -12.94882        5.20712
H          4.68812      -15.05379        6.23450
H          7.23336      -16.77929        6.14245
H          4.32159      -17.61036        6.10149
H          4.08680      -22.69558        7.28888
H          8.59867      -21.42330        9.02530
