104

C         11.17663       -3.87656        1.10040
C         12.54667       -4.09292        0.98996
C         13.18401       -3.92315       -0.26092
C         14.59048       -4.20726       -0.35477
N         15.72096       -4.45747       -0.41759
C         12.44394       -3.52600       -1.39629
C         13.06431       -3.38139       -2.68379
N         13.54124       -3.27350       -3.73515
C         11.06258       -3.31992       -1.29185
C         10.46433       -3.52535       -0.05601
C          9.01580       -3.56907        0.19950
O          8.14476       -3.30523       -0.60386
C          8.86376       -4.09522        1.59982
C         10.20458       -4.04215        2.22270
C         10.49094       -4.00052        3.54751
C         11.81589       -3.81733        4.03454
N         12.90724       -3.66677        4.40294
C          9.48554       -4.08314        4.55414
N          8.67140       -4.18402        5.37485
C          7.73355       -4.68006        2.03483
C          6.51957       -4.83372        1.22431
C          5.49870       -3.88578        1.23160
C          5.29248       -2.67267        2.03759
O          6.09213       -2.29238        2.87300
N          4.05885       -2.14982        1.68322
C          3.47527       -2.91934        0.70365
O          2.39716       -2.84574        0.14234
C          4.38155       -4.01956        0.41964
C          4.18906       -5.08256       -0.44386
C          5.19042       -6.04194       -0.44503
C          6.32471       -5.93318        0.36733
C          7.20859       -7.09614        0.21199
O          8.24560       -7.26645        0.82833
S          6.57879       -8.23770       -0.95888
C          5.16514       -7.25736       -1.25260
O          4.26575       -7.54571       -2.01908
C          3.47624       -1.06914        2.32993
C          2.27900       -0.54403        2.01749
C          1.52231        0.44954        2.72708
C          0.14197        0.37933        2.66329
S         -0.61882        1.53804        3.64477
C          0.87995        2.12454        4.20155
C          1.96365        1.53060        3.57725
C          3.23448        2.07508        3.90571
C          3.47433        2.98008        4.98380
C          2.30397        3.46385        5.68010
C          1.04709        3.09336        5.20247
S         -0.25023        3.89754        5.96931
C          0.79290        4.65116        7.07182
C          2.10098        4.27299        6.86667
C          4.85647        3.34968        5.46478
C          5.14583        4.62478        5.99669
C          4.47098        5.93150        5.85797
O          3.62567        6.17028        5.01565
N          5.01617        6.78955        6.79432
C          6.09482        6.21028        7.41010
O          6.84812        6.61912        8.27416
C          6.21005        4.85835        6.86810
C          7.14297        3.90095        7.18984
C          7.00112        2.69726        6.52175
C          5.92372        2.42297        5.65211
C          6.20435        1.13837        4.97158
O          5.80503        0.82128        3.87076
S          7.44640        0.20427        5.78130
C          7.94849        1.59617        6.68416
O          8.95138        1.65745        7.37077
C          4.51951        8.06143        7.00731
C          5.00789        8.96547        7.87014
C          4.44221       10.28923        8.02360
C          5.09455       11.38553        8.43809
C          4.29512       12.58736        8.84829
O          3.13383       12.83665        8.60729
C          5.19849       13.38854        9.69373
C          4.86192       14.54403       10.38626
C          5.83685       15.11984       11.21301
C          7.09553       14.49550       11.35908
C          7.40726       13.32406       10.63364
C          6.46813       12.79382        9.76023
C          6.49365       11.66605        8.78239
C          7.59727       11.24456        8.10988
C          7.52369       10.45421        6.92465
N          7.48346        9.84377        5.93629
C          8.90821       11.68201        8.44811
N          9.96485       12.05529        8.74270
C          8.09148       15.03149       12.24706
N          8.90324       15.43967       12.96712
C          5.52683       16.34823       11.89068
N          5.26886       17.34742       12.41541
H         13.14267       -4.44105        1.83134
H         10.45858       -3.05536       -2.15785
H          7.67299       -5.17086        3.00153
H          3.29740       -5.16838       -1.05828
H          4.04427       -0.69677        3.17691
H          1.73884       -0.96969        1.17558
H         -0.46480       -0.32459        2.10784
H          4.04883        1.75409        3.27223
H          0.40086        5.31888        7.82671
H          2.87874        4.63607        7.52040
H          7.95293        4.09035        7.88779
H          3.66439        8.31674        6.38063
H          5.86193        8.72734        8.49762
H          3.36570       10.35728        7.84844
H          3.87081       14.97998       10.28086
H          8.38196       12.86201       10.77869
