87

C         -7.74221       -2.17645        2.05380
C         -8.79359       -1.26640        2.00609
C        -10.11428       -1.71675        2.25421
C        -11.18980       -0.76551        2.19267
N        -12.05300        0.00737        2.13941
C        -10.37204       -3.07694        2.53767
C        -11.70495       -3.57690        2.72322
N        -12.76755       -4.02321        2.85644
C         -9.31325       -3.98679        2.60585
C         -8.03525       -3.51221        2.36226
C         -6.81764       -4.32968        2.30255
O         -6.66908       -5.40335        2.84602
C         -5.81846       -3.49009        1.55776
C         -6.27605       -2.09030        1.76566
C         -5.50207       -0.97814        1.87813
C         -6.03947        0.28349        2.26518
N         -6.50350        1.29283        2.58930
C         -4.08957       -1.02720        1.70559
N         -2.93951       -1.07497        1.55505
C         -4.87986       -3.97388        0.71769
C         -4.71586       -5.36876        0.41749
S         -3.15744       -6.03506        0.13773
C         -3.70060       -7.71073        0.19442
C         -5.09619       -7.69711        0.24273
C         -5.63790       -6.36184        0.16387
N         -6.95875       -6.10197       -0.02229
C         -7.69021       -7.23733       -0.08734
N         -7.30030       -8.52413        0.10197
C         -5.97513       -8.78780        0.30772
C         -5.62384      -10.07951        0.78721
N         -5.29690      -11.12389        1.18048
C         -2.64173       -8.77259        0.03106
C         -2.74360       -9.90220       -0.81658
C         -1.66394      -10.85910       -0.99330
N         -1.89432      -12.00143       -1.66610
C         -3.09810      -12.20907       -2.24691
C         -4.08673      -11.26552       -2.16571
N         -3.90709      -10.10235       -1.47403
C         -5.37532      -11.44727       -2.76343
N         -6.41620      -11.60261       -3.24967
C         -3.23795      -13.44328       -2.95865
N         -3.35380      -14.43548       -3.54811
C         -0.36209      -10.66448       -0.49116
C         -0.21306       -9.54802        0.38493
C         -1.38447       -8.63496        0.69859
N         -1.07390       -7.73078        1.64369
S          0.53011       -7.87928        1.98757
N          0.91707       -9.14615        1.00051
C          0.81158      -11.52016       -0.84466
S          1.95718      -11.96757        0.36568
C          3.09777      -12.64196       -0.76000
C          2.45243      -12.83731       -1.97210
C          1.17503      -12.15343       -2.02506
N          0.42166      -12.14919       -3.15583
C          0.95131      -12.92156       -4.13711
N          2.12719      -13.60383       -4.16752
C          2.94656      -13.55232       -3.08055
C          4.18904      -14.25543       -3.14239
N          5.20026      -14.82501       -3.16531
C          4.39583      -13.02354       -0.28977
C          5.19320      -12.28619        0.50068
C          6.29796      -13.01514        1.20847
O          6.85594      -14.03964        0.88355
C          6.49183      -12.28330        2.47223
C          7.22773      -12.72058        3.56144
C          7.14311      -11.97738        4.74484
C          6.31490      -10.83329        4.80595
C          5.59464      -10.40363        3.67052
C          5.70371      -11.12066        2.48729
C          5.09057      -10.96616        1.13959
C          4.75833       -9.79041        0.55205
C          4.45286       -9.70062       -0.83722
N          4.21992       -9.63143       -1.97239
C          4.78689       -8.55309        1.25628
N          4.81363       -7.56330        1.86244
C          6.15691      -10.09681        6.02930
N          5.99980       -9.49683        7.00884
C          7.88368      -12.42606        5.88886
N          8.48735      -12.80256        6.80334
H         -8.63836       -0.21821        1.75592
H         -9.47442       -5.04457        2.80277
H         -4.23195       -3.29586        0.16996
H         -8.74563       -7.09660       -0.30814
H          0.34416      -13.01845       -5.03539
H          4.72310      -14.03776       -0.52553
H          7.81807      -13.63264        3.49577
H          4.94148       -9.53736        3.75674
