109

C         -3.12251       -9.19924        1.03192
C         -4.31760       -9.83525        1.37429
C         -5.53613       -9.44498        0.76391
C         -6.74842      -10.10716        1.16420
N         -7.72065      -10.64415        1.50223
C         -5.55320       -8.42677       -0.20931
C         -6.76799       -8.02416       -0.86207
N         -7.73422       -7.68280       -1.40373
C         -4.36133       -7.78208       -0.55596
C         -3.18980       -8.17342        0.08110
C         -1.86335       -7.59666       -0.16692
O         -1.64169       -6.63168       -0.87078
C         -0.88221       -8.42952        0.60780
C         -1.68424       -9.37657        1.44270
C         -1.23385      -10.21566        2.40824
C         -2.09537      -11.05113        3.18684
N         -2.79347      -11.72115        3.81897
C          0.14227      -10.33813        2.75396
N          1.26220      -10.45529        3.03481
C          0.44546       -8.28878        0.41550
C          1.08680       -7.34578       -0.52653
C          1.36467       -6.02238       -0.18731
C          1.20907       -5.31023        1.08234
O          0.67204       -5.81248        2.05411
N          1.74929       -4.05153        0.90826
C          2.12846       -3.84944       -0.39682
O          2.59535       -2.86333       -0.93747
C          1.92633       -5.11772       -1.08701
C          2.25667       -5.45553       -2.38243
C          1.99628       -6.77339       -2.73438
C          1.44668       -7.70170       -1.83626
C          1.35554       -9.03599       -2.43793
O          1.02841      -10.04276       -1.83537
S          1.83197       -9.02101       -4.12394
C          2.26732       -7.33299       -4.05380
O          2.73751       -6.69274       -4.97621
C          1.91998       -3.08759        1.87916
C          1.89329       -3.33419        3.19743
C          2.04381       -2.34781        4.22248
S          2.21236       -0.66870        3.85813
C          2.21719       -0.16918        5.50734
C          2.13096       -1.27023        6.33064
C          2.04317       -2.51494        5.59964
C          1.90640       -3.76698        6.22624
C          1.86677       -3.67893        7.63372
O          1.68337       -4.76705        8.45634
C          2.21784       -5.99614        7.98055
C          1.93617       -2.44230        8.34190
C          2.06983       -1.18386        7.72566
C          2.27400        1.23038        5.75167
C          3.09137        1.76617        6.67088
C          3.21485        3.21300        6.88527
C          3.38617        4.12678        5.83636
C          3.50741        3.93900        4.37899
O          3.55558        2.84818        3.84146
N          3.58816        5.18616        3.80153
C          3.64080        6.16157        4.76731
O          3.79585        7.36428        4.66365
C          3.49703        5.49415        6.05911
C          3.47235        6.04915        7.32456
C          3.32873        5.15175        8.37791
C          3.20657        3.77070        8.17806
C          3.06919        3.05725        9.46060
O          2.95725        1.85272        9.58796
S          3.09879        4.15888       10.82391
C          3.29033        5.54299        9.78377
O          3.38309        6.69443       10.16739
C          3.63985        5.46234        2.44735
C          3.54798        4.55075        1.46778
C          3.58619        4.85989        0.05884
C          2.64329        4.51878       -0.83105
C          3.03949        4.44363       -2.27410
O          3.97928        4.97368       -2.82589
C          2.09639        3.49224       -2.88801
C          2.17388        2.98126       -4.17333
C          1.24369        2.00774       -4.55124
C          0.27659        1.55711       -3.62280
C          0.22205        2.09950       -2.32210
C          1.12228        3.09288       -1.95477
C          1.31627        3.89593       -0.71303
C          0.34624        4.20655        0.18187
C          0.49164        5.24116        1.15229
N          0.55237        6.09584        1.93507
C         -0.94989        3.61877        0.14362
N         -2.00042        3.12858        0.10107
C         -0.66817        0.53215       -3.97229
N         -1.43781       -0.29714       -4.22676
C          1.30640        1.47237       -5.88074
N          1.36679        1.05044       -6.95854
H         -4.36330      -10.63993        2.10253
H         -4.33868       -6.99627       -1.30931
H          1.17350       -8.90997        0.92581
H          2.70635       -4.74373       -3.06878
H          2.12759       -2.09603        1.48228
H          1.76585       -4.35736        3.53317
H          1.79776       -4.69795        5.69262
H          2.04979       -6.74971        8.75549
H          3.29724       -5.91232        7.81618
H          1.70649       -6.34221        7.07787
H          1.87798       -2.47025        9.43033
H          2.09591       -0.27322        8.30835
H          1.67902        1.85911        5.09411
H          3.70655        1.13054        7.30528
H          3.56594        7.11967        7.48345
H          3.71091        6.52242        2.20436
H          3.45839        3.48826        1.68320
H          4.54943        5.23295       -0.29552
H          2.95356        3.32506       -4.85388
H         -0.52133        1.71224       -1.62745
