150

C          4.47350       -5.11684        1.47192
C          5.25506       -4.04092        1.86526
C          5.49719       -3.81967        3.23828
C          6.30524       -2.70306        3.61672
N          6.95573       -1.79095        3.91879
C          4.93745       -4.68171        4.20831
C          5.16660       -4.45665        5.61054
N          5.30053       -4.30056        6.74141
C          4.14134       -5.75949        3.81677
C          3.92535       -5.94331        2.46610
C          3.04370       -6.96080        1.87410
O          2.58088       -7.90308        2.48128
C          2.90466       -6.57933        0.42838
C          4.00388       -5.62431        0.15015
C          4.61825       -5.39281       -1.03896
C          5.76190       -4.56958       -1.18466
N          6.71787       -3.89444       -1.24857
C          4.21239       -6.04215       -2.21735
N          3.87478       -6.56116       -3.19294
C          1.82076       -6.93686       -0.30676
C          0.69908       -7.76806        0.13715
C         -0.44872       -7.19206        0.69861
C         -1.55968       -7.98533        1.08542
C         -1.58314       -9.37283        0.86542
C         -0.37467       -9.95111        0.42099
C          0.73419       -9.16041        0.02934
C         -2.85988      -10.21941        1.04117
C         -2.97049      -10.94074        2.38099
C         -2.35217      -12.19320        2.54649
C         -2.14443      -12.74615        3.82254
C         -2.60941      -12.09055        4.95816
C         -3.31246      -10.89730        4.81087
C         -3.47600      -10.31653        3.53630
C         -3.81326      -10.36561        0.03172
C         -3.70946       -9.71811       -1.38392
C         -2.49137       -9.41543       -2.00441
C         -2.38258       -8.72332       -3.21975
C         -3.51388       -8.44943       -3.96363
C         -4.74393       -8.86492       -3.47210
C         -4.84301       -9.45997       -2.19216
C         -5.09738      -11.15161        0.30480
C         -6.23781      -10.48223        0.77469
C         -7.50066      -11.10593        0.78815
C         -7.66255      -12.45333        0.43924
C         -6.52104      -13.14065        0.00496
C         -5.26546      -12.48833       -0.09778
C         -8.99101      -13.09055        0.58526
N         -9.38975      -14.22376       -0.10826
C        -10.66118      -14.55826        0.28323
C        -11.69325      -15.51108        0.07805
C        -12.71050      -15.12542        0.93701
N        -12.34261      -13.97650        1.59729
C        -11.07590      -13.65252        1.19815
C        -10.04828      -12.70799        1.41235
C        -13.99010      -15.65064        1.22916
C        -14.14072      -16.52877        2.23442
C        -15.43172      -17.11340        2.63075
C        -16.40642      -17.46044        1.69922
C        -17.57198      -18.14244        2.09612
C        -17.86067      -18.44195        3.44675
C        -16.92040      -17.96527        4.37015
C        -15.69405      -17.39321        3.97187
C        -19.17032      -19.18525        3.81302
C        -20.33511      -18.90099        2.85199
C        -21.00384      -17.66356        2.92456
C        -21.87405      -17.23781        1.90499
C        -22.09902      -18.04129        0.79098
C        -21.45940      -19.27590        0.70261
C        -20.58356      -19.70218        1.72049
C        -19.33612      -20.03234        4.90891
C        -18.23587      -20.29679        5.94885
C        -18.48886      -20.14178        7.32994
C        -17.46203      -20.21868        8.29055
C        -16.14422      -20.40010        7.89110
C        -15.87372      -20.61449        6.54403
C        -16.91737      -20.63957        5.59770
C        -20.69192      -20.68480        5.15151
C        -21.00680      -21.94755        4.62612
C        -22.29845      -22.50429        4.77109
C        -23.29102      -21.85623        5.51628
C        -22.94421      -20.64117        6.12319
C        -21.67174      -20.06294        5.93909
C        -24.70886      -22.28674        5.56666
C        -25.28617      -23.49571        5.46597
C        -26.76435      -23.53198        5.16900
O        -27.59749      -22.67199        5.35094
C        -26.99848      -24.82847        4.50747
C        -28.17684      -25.23216        3.89339
C        -28.17508      -26.45706        3.21424
C        -26.99178      -27.22623        3.15151
C        -25.81099      -26.78726        3.79362
C        -25.82072      -25.59252        4.50208
C        -24.79705      -24.86962        5.31641
C        -23.79311      -25.44965        6.01450
C        -23.07654      -24.75926        7.03908
N        -22.50671      -24.23516        7.90802
C        -23.45787      -26.82603        5.86850
N        -23.20719      -27.94896        5.71711
C        -26.95058      -28.46935        2.43043
N        -26.89219      -29.46920        1.84731
C        -29.38820      -26.89343        2.58047
N        -30.37610      -27.23119        2.07763
H          5.67854       -3.33692        1.14670
H          3.67597       -6.42409        4.54363
H          1.70896       -6.53776       -1.31850
H         -0.50196       -6.11270        0.82935
H         -2.40411       -7.49420        1.56176
H         -0.30461      -11.02852        0.29324
H          1.61376       -9.64862       -0.38600
H         -1.97768      -12.73452        1.68286
H         -1.59170      -13.67687        3.93185
H         -2.41979      -12.50350        5.94814
H         -3.70223      -10.40175        5.69848
H         -3.96994       -9.35142        3.47322
H         -1.55821       -9.73498       -1.58002
H         -1.40003       -8.42760       -3.57867
H         -3.42857       -7.94957       -4.92502
H         -5.63226       -8.72094       -4.08438
H         -5.84586       -9.72542       -1.86602
H         -6.17362       -9.44478        1.09072
H         -8.36994      -10.51253        1.06490
H         -6.58241      -14.19491       -0.25620
H         -4.42715      -13.04089       -0.51550
H         -8.86524      -14.74796       -0.79550
H        -11.69480      -16.36456       -0.58576
H        -12.87838      -13.45198        2.27689
H        -10.06839      -11.86982        2.09453
H        -14.83287      -15.29941        0.64073
H        -13.27663      -16.84657        2.81595
H        -16.26658      -17.23451        0.64446
H        -18.24857      -18.42965        1.29551
H        -17.08875      -18.06103        5.43789
H        -14.95442      -17.16463        4.73700
H        -20.80796      -16.98588        3.75154
H        -22.35111      -16.26126        1.96435
H        -22.75224      -17.69812       -0.01050
H        -21.61606      -19.89020       -0.18227
H        -20.03888      -20.63119        1.57604
H        -19.48874      -19.92792        7.69645
H        -17.68969      -20.10532        9.34915
H        -15.33733      -20.37741        8.62158
H        -14.84169      -20.72733        6.21810
H        -16.65704      -20.82337        4.55837
H        -20.25562      -22.51145        4.07806
H        -22.50737      -23.43954        4.26112
H        -23.67312      -20.10834        6.73320
H        -21.45970      -19.11379        6.42488
H        -25.38811      -21.42916        5.60503
H        -29.06132      -24.59984        3.93149
H        -24.91239      -27.39391        3.70499
