98

C          0.52107       -6.73187      -11.17568
C          1.30169       -5.70547      -11.70787
F          1.69388       -5.82725      -12.98550
C          1.69215       -4.55143      -10.98900
F          2.41247       -3.64241      -11.66619
C          1.34567       -4.30669       -9.64129
C          0.59401       -5.34560       -9.02619
C          0.16129       -6.56574       -9.82528
N         -0.57302       -7.43656       -9.12074
S         -0.71894       -6.81157       -7.59685
N          0.20398       -5.44500       -7.74621
C          1.80367       -3.07418       -8.97035
N          2.95230       -2.50587       -9.28424
C          3.00638       -1.39879       -8.49834
C          1.82706       -1.31269       -7.68562
C          1.89174       -0.09205       -6.84361
O          1.09531        0.33783       -6.04509
C          3.19918        0.48154       -7.24085
C          3.80435       -0.36583       -8.23818
N          5.00520        0.14882       -8.60949
C          5.09817        1.22659       -7.87926
C          3.97286        1.52406       -6.96651
C          1.02187       -2.34232       -7.91144
C         -0.23076       -2.63359       -7.30033
C         -0.34786       -2.79970       -5.97105
C         -1.57985       -3.23971       -5.34467
C         -2.65678       -2.42064       -5.38406
C         -3.95251       -2.89426       -4.93979
C         -5.20150       -2.35765       -5.02680
C         -5.74403       -1.07661       -5.66012
C         -6.41145       -0.12374       -4.62834
N         -5.53448        0.30154       -3.53886
C         -4.77100       -0.22884       -6.52756
N         -4.31833       -0.89925       -7.75396
C         -6.07869       -3.38469       -4.43041
C         -7.40957       -3.43335       -4.25215
C         -8.10908       -4.64620       -3.64466
C         -7.16507       -5.76438       -3.22066
C         -5.83554       -5.71638       -3.40416
C         -5.28293       -4.53599       -4.01059
C         -4.01746       -4.24622       -4.33300
C         -2.82756       -5.05241       -4.21176
C         -1.67711       -4.56466       -4.70901
C         -9.16910       -5.14430       -4.59505
C         -8.97971       -6.01095       -5.60466
C        -10.13403       -6.38311       -6.44620
N        -11.38226       -6.37861       -6.04367
C        -12.06313       -6.79924       -7.13793
C        -11.15422       -7.06154       -8.22828
C        -11.93714       -7.53513       -9.39725
O        -11.55154       -7.86889      -10.49493
C        -13.32687       -7.51071       -8.87826
C        -13.30981       -7.05342       -7.51258
N        -14.57310       -7.02944       -7.01324
C        -15.28907       -7.44621       -8.02051
C        -14.56674       -7.77951       -9.26750
C         -9.90255       -6.81575       -7.86365
C         -8.66260       -6.92612       -8.56400
C         -8.41159       -6.31140       -9.73158
C         -7.13303       -6.37911      -10.45204
C         -5.86899       -6.63434       -9.87860
F         -5.77983       -6.85102       -8.55469
C         -4.66188       -6.66426      -10.61155
F         -3.52350       -6.91792       -9.94917
C         -4.57468       -6.43631      -11.98688
C         -5.79854       -6.14828      -12.62576
C         -7.10504       -6.10976      -11.85440
N         -8.14868       -5.80202      -12.64504
S         -7.56011       -5.60556      -14.18228
N         -5.94347       -5.88349      -13.93196
H          0.22882       -7.59793      -11.75499
H          5.95660        1.91519       -7.90375
H          3.84731        2.34635       -6.29400
H         -1.08162       -2.79206       -7.95834
H          0.51203       -2.71100       -5.31062
H         -2.54789       -1.42534       -5.78694
H         -6.54487       -1.39142       -6.34620
H         -7.30436       -0.58459       -4.19784
H         -6.76805        0.77534       -5.14695
H         -5.23247       -0.52326       -3.01694
H         -6.07388        0.86224       -2.87916
H         -3.91421        0.10666       -5.93375
H         -5.27659        0.68798       -6.85269
H         -3.95535       -1.82390       -7.52694
H         -3.53628       -0.37044       -8.14054
H         -8.04862       -2.61207       -4.55315
H         -8.61449       -4.31063       -2.72897
H         -7.60785       -6.63765       -2.74828
H         -5.19031       -6.53191       -3.10075
H         -2.87383       -6.03324       -3.75567
H         -0.76663       -5.15446       -4.65225
H        -10.16180       -4.72382       -4.43613
H         -8.00750       -6.43067       -5.83123
H        -16.38277       -7.56256       -7.99068
H        -14.96021       -8.13927      -10.19650
H         -7.90711       -7.53574       -8.07511
H         -9.18869       -5.71188      -10.20694
H         -3.63237       -6.46838      -12.51696
