102

C          2.74071       -0.76462        3.36417
O          3.32753       -1.83006        3.30822
C          1.79715       -0.31892        4.33316
C          1.26776        0.91674        4.07895
C          0.30761        1.26868        5.05374
C          0.18329        0.26882        6.00961
S          1.22119       -1.07509        5.70402
C          1.85354        1.46515        2.86726
C          1.58589        2.68126        2.33802
C          0.66026        3.58404        2.94820
N         -0.08904        4.31513        3.43283
C          2.18519        3.16665        1.14436
N          2.66771        3.55295        0.16211
C          2.80218        0.40030        2.36306
C          3.55694        0.34772        1.25051
C          4.38813       -0.74313        0.84100
C          4.25662       -1.51298       -0.42479
N          5.09972       -2.48876       -0.60984
C          5.85780       -2.44493        0.51683
C          5.43276       -1.36849        1.38250
C          6.30405       -1.33841        2.60026
S          6.29585       -0.26290        3.86909
C          7.21909       -2.49094        2.33616
C          6.87916       -3.09043        1.06535
N          7.70770       -4.13012        0.78366
C          8.49847       -4.15210        1.81979
C          8.25719       -3.12807        2.86591
C          9.00644       -2.96424        4.07528
C          8.34917       -3.07804        5.25509
C          9.07370       -2.95867        6.49971
C          8.64711       -3.06145        7.78268
C          7.25041       -3.25434        8.33551
C          6.27987       -2.12377        7.89799
N          6.70388       -0.80059        8.37250
C          6.71989       -4.66651        7.98216
N          5.37722       -4.94503        8.49713
C          9.85646       -2.89761        8.58550
C         10.06060       -3.01202        9.90514
C         11.42370       -2.76010       10.52894
C         12.52805       -2.43655        9.53166
C         12.32625       -2.36712        8.20414
C         10.99640       -2.61202        7.71383
C         10.52412       -2.67988        6.46139
C         11.19148       -2.54687        5.19060
C         10.46239       -2.69926        4.06725
C         11.26790       -1.70231       11.59141
C         11.38215       -0.37054       11.44465
C         11.18832        0.52811       12.53790
C         10.36059        0.28885       13.75217
N         10.42920        1.18044       14.69837
C         11.28933        2.09311       14.17704
C         11.69723        1.72114       12.83975
C         12.66081        2.74388       12.32597
S         13.33355        2.90273       10.81782
C         12.85539        3.60784       13.53129
C         11.96416        3.16236       14.57830
N         12.15356        3.88402       15.71178
C         13.11140        4.69673       15.37192
C         13.60532        4.61662       13.96596
C         14.71252        5.31853       13.38992
C         15.04943        6.60158       13.59337
C         16.47273        7.05617       13.29925
O         17.26985        6.51750       12.55341
C         16.61572        8.19083       14.16775
C         15.46590        8.52355       14.84255
C         14.38921        7.69226       14.35834
C         13.07815        8.02293       14.32852
C         12.55423        9.08637       15.11363
N         12.13692        9.93380       15.78637
C         12.18687        7.41512       13.39736
N         11.50494        6.93738       12.58947
C         15.66266        9.59350       15.73652
C         16.96528       10.06500       15.64309
S         17.92295        9.16868       14.51208
H         -0.28309        2.17482        5.10200
H         -0.46634        0.25277        6.87437
H          3.56826        1.15213        0.52323
H          3.46483       -1.24392       -1.14067
H          9.31218       -4.88016        1.95674
H          7.28468       -3.27759        5.29229
H          7.29327       -3.20764        9.43211
H          5.27667       -2.31101        8.29515
H          6.17942       -2.08427        6.81026
H          6.87128       -0.82748        9.37528
H          5.95146       -0.13210        8.21429
H          7.40349       -5.41862        8.39539
H          6.69860       -4.81968        6.89899
H          5.35239       -4.81778        9.50726
H          5.15034       -5.92551        8.32697
H          9.25076       -3.27935       10.57417
H         11.73369       -3.68653       11.03145
H         13.52823       -2.27864        9.92725
H         13.13188       -2.14058        7.51618
H         12.25439       -2.34188        5.15500
H         10.94901       -2.61063        3.09977
H         11.01051       -2.11646       12.56497
H         11.65138        0.05972       10.48127
H          9.73270       -0.61357       13.81097
H         13.57229        5.40817       16.07313
H         15.38602        4.69288       12.79963
H         14.93005       10.03640       16.40151
H         17.40875       10.89578       16.17653
