144

C          3.12491        1.35979       -2.94773
S          1.84493        0.47589       -3.69381
C          2.67524        2.20380       -1.93820
C          1.26485        2.15257       -1.81347
C          0.16569        2.73856       -1.00729
C          0.27696        3.68986       -0.03477
C         -0.81020        4.23392        0.88282
N         -1.76755        3.30557        1.45480
C          1.60865        4.36888        0.28594
N          1.48598        5.78499        0.64439
C          0.75066        1.20736       -2.67655
C         -0.63457        1.09972       -2.47107
S         -1.83365        0.12528       -3.08843
C         -1.02239        2.01173       -1.51246
C         -2.43033        1.98481       -1.40730
C         -3.01460        0.91196       -2.08741
C         -4.37029        0.46283       -2.10528
C         -5.26768        0.90393       -1.20634
C         -6.66868        0.56178       -1.22523
C         -7.10513       -0.71902       -1.21954
C         -8.55084       -0.75262       -1.20434
C         -9.32131       -1.93816       -1.24285
N         -9.94458       -2.91606       -1.28345
C         -9.02952        0.50143       -1.17965
C         -7.88483        1.42116       -1.17822
C         -7.96653        2.77118       -1.19852
C         -9.19030        3.60496       -1.20653
C         -8.78700        4.88597       -1.34900
C         -7.34608        4.94342       -1.42321
C         -6.84347        3.70483       -1.31112
C         -6.60938        6.13903       -1.58900
N         -6.00980        7.12273       -1.72679
C        -10.57673        3.28070       -0.99727
C        -11.55077        3.63285       -1.85082
C        -12.95103        3.35360       -1.59574
C        -13.64829        2.64163       -2.51752
C        -15.03691        2.29920       -2.26313
C        -15.93490        1.57415       -2.99116
C        -15.69979        1.02163       -4.39250
C        -15.16398       -0.43118       -4.42930
N        -13.83063       -0.57125       -3.83518
C        -16.82663        1.23035       -5.44788
N        -17.98705        0.34417       -5.42469
C        -17.14040        1.55128       -2.14470
C        -18.35706        0.99940       -2.27029
C        -19.50064        1.30516       -1.30879
C        -19.06251        1.93923       -0.00788
C        -17.82998        2.43274        0.17137
C        -16.89537        2.30922       -0.91512
C        -15.64234        2.75611       -0.99371
C        -14.89325        3.56142       -0.07116
C        -13.61382        3.84392       -0.37140
C        -20.56686        2.17832       -1.94205
C        -20.58061        2.70500       -3.18033
C        -21.72022        3.38011       -3.76361
C        -21.56364        4.53964       -4.44325
C        -22.85152        5.04726       -4.86953
C        -23.02603        6.23904       -5.62611
N        -23.15624        7.21631       -6.24874
C        -23.82176        4.20887       -4.46041
C        -23.18861        3.07572       -3.77170
C        -23.80184        1.98247       -3.25489
C        -25.23079        1.72091       -2.92085
C        -25.23836        0.56733       -2.21376
C        -23.92708       -0.01163       -2.17339
C        -23.07998        0.77583       -2.83969
C        -23.61101       -1.23543       -1.56185
N        -23.34279       -2.24270       -1.04147
C        -26.43928        2.48390       -3.11915
C        -27.67607        2.11710       -2.72940
C        -28.78044        2.98992       -2.90846
S        -30.40621        2.38983       -2.91688
C        -28.76204        4.36283       -3.11216
C        -30.03649        4.93090       -3.14413
C        -30.66818        6.23655       -3.32293
C        -30.15264        7.48454       -3.13691
C        -31.06684        8.69598       -3.32053
N        -30.48148        9.99722       -2.99757
C        -28.74967        7.90094       -2.69813
N        -27.61277        7.01104       -2.81502
C        -30.97960        3.93021       -3.17486
C        -32.21772        4.49948       -3.51109
S        -33.70112        3.88885       -3.92552
C        -32.06570        5.86314       -3.64453
C        -33.27135        6.44733       -4.10492
C        -34.25962        5.48412       -4.34692
C        -35.57099        5.58992       -4.89067
C        -36.31485        6.69346       -4.76145
H          4.14204        1.19927       -3.27848
H          3.36659        2.79314       -1.35447
H         -1.32482        5.05792        0.37348
H         -0.34360        4.66783        1.77564
H         -2.40337        3.01143        0.73699
H         -2.35610        3.82905        2.10321
H          2.29990        4.35001       -0.55270
H          2.07239        3.83943        1.12705
H          1.20989        6.32184       -0.17548
H          2.39769        6.14087        0.92896
H         -3.05119        2.66710       -0.85827
H         -4.67197       -0.24186       -2.87828
H         -4.98063        1.57776       -0.40428
H         -6.48679       -1.60592       -1.21458
H        -10.07460        0.76067       -1.19938
H         -9.42493        5.75910       -1.36021
H         -5.79574        3.46540       -1.34239
H        -10.81085        2.72962       -0.08767
H        -11.32777        4.15748       -2.77687
H        -13.17502        2.26030       -3.41383
H        -14.88886        1.63703       -4.81393
H        -15.09266       -0.77001       -5.47062
H        -15.85287       -1.10728       -3.91351
H        -13.14636       -0.07709       -4.40574
H        -13.55303       -1.55284       -3.85362
H        -16.37751        1.07779       -6.43803
H        -17.16509        2.27276       -5.43416
H        -17.84952       -0.41466       -4.76047
H        -18.80448        0.86837       -5.11635
H        -18.61494        0.34161       -3.07744
H        -19.96386        0.34121       -1.05825
H        -19.78880        1.99043        0.79923
H        -17.53121        2.87720        1.11130
H        -15.36406        3.94255        0.82461
H        -13.03508        4.47056        0.30055
H        -21.43959        2.33030       -1.30690
H        -19.70494        2.63432       -3.82127
H        -20.62929        5.05703       -4.61604
H        -24.86146        4.32492       -4.70451
H        -26.08568        0.08363       -1.75045
H        -22.05821        0.53041       -3.05038
H        -26.30946        3.43114       -3.62169
H        -27.87264        1.17239       -2.23443
H        -27.83396        4.88226       -3.24252
H        -31.96090        8.58863       -2.69779
H        -31.36930        8.73890       -4.37256
H        -30.42163       10.10714       -1.98683
H        -31.09353       10.74000       -3.32994
H        -28.80803        8.21107       -1.64642
H        -28.44793        8.77914       -3.27724
H        -27.53564        6.47791       -1.94982
H        -26.76113        7.56900       -2.86673
H        -33.42218        7.49422       -4.32718
H        -35.98678        4.73072       -5.41535
H        -35.97599        7.57036       -4.22257
H        -37.31454        6.72310       -5.18511
