83

C          0.59668       -1.07863       -1.30221
C          0.84811        0.32114       -1.40775
C          0.48235        1.00440       -0.26886
S          0.66924        2.73880       -0.04268
C          0.94631        2.86280        1.73983
S         -0.23338       -0.03811        0.87697
C          0.03468       -1.43188       -0.08820
C         -0.34173       -2.70200        0.42637
C          0.29907       -3.81665        0.04903
C         -0.10859       -5.06204        0.56106
N         -1.07799       -5.74969       -0.12326
C         -1.25980       -6.97364        0.45855
C         -0.45006       -7.04918        1.56701
C          0.28393       -5.83736        1.63163
C         -2.07869       -7.98443       -0.09311
C         -2.65227       -8.86158       -0.67242
C         -3.18002       -9.89847       -1.48598
S         -4.55764       -9.65491       -2.48073
C         -4.43469      -11.21963       -3.20376
C         -3.31678      -11.86122       -2.69536
C         -2.64023      -11.14912       -1.66183
C         -1.50364      -11.64931       -1.00168
C         -1.11586      -12.97149       -1.40907
S          0.44244      -13.47060       -0.61044
C          0.21663      -15.19118       -0.04246
C         -0.98346      -15.40256        0.85808
C         -1.81273      -13.69615       -2.45829
S         -1.38502      -15.39163       -2.95031
C         -2.72574      -15.92230       -4.09106
C         -4.09850      -16.05484       -3.44344
C         -2.88186      -13.09778       -3.16650
C         -5.40727      -11.60508       -4.18342
C         -5.86947      -12.86664       -4.24095
C         -6.72976      -13.38789       -5.23764
N         -7.25098      -12.59184       -6.22240
C         -8.03084      -13.33436       -7.06505
C         -8.01813      -14.63654       -6.63064
C         -7.19755      -14.67069       -5.47581
C         -8.68058      -12.76452       -8.17762
C         -9.15079      -12.16789       -9.09949
C         -9.62263      -11.36173      -10.17631
C        -10.33117      -10.14573       -9.99161
C        -10.65773       -9.54609      -11.18448
S        -11.55401       -8.05141      -11.41747
C        -11.11632       -7.10981       -9.93854
S        -10.10926      -10.47119      -12.51886
C         -9.40820      -11.67255      -11.51108
C         -8.74674      -12.79657      -12.06815
C         -7.43819      -12.76028      -12.34860
H          0.81961       -1.78989       -2.08861
H          1.28795        0.79447       -2.27718
H          1.13605        3.90683        2.00116
H          1.81481        2.26819        2.03783
H          0.06661        2.53195        2.29851
H         -1.14779       -2.75128        1.15636
H          1.13948       -3.79973       -0.63939
H         -1.54175       -5.43080       -0.96420
H         -0.35769       -7.90139        2.22773
H          1.04125       -5.57916        2.35934
H         -0.94994      -11.08416       -0.25957
H          1.12039      -15.44355        0.52498
H          0.21379      -15.88330       -0.88383
H         -0.90617      -14.80360        1.77089
H         -1.02989      -16.45534        1.15949
H         -1.92582      -15.16457        0.35796
H         -2.44626      -16.89939       -4.49617
H         -2.75126      -15.24680       -4.95243
H         -4.19006      -16.98059       -2.87103
H         -4.85894      -16.07961       -4.22995
H         -4.35260      -15.23510       -2.76802
H         -3.34565      -13.54308       -4.02564
H         -5.73866      -10.83559       -4.87121
H         -5.55468      -13.58386       -3.49099
H         -7.09545      -11.60160       -6.33424
H         -8.53474      -15.47131       -7.08760
H         -6.97265      -15.55060       -4.88756
H        -10.58488       -9.74793       -9.01616
H        -11.61944       -6.13986       -9.96806
H        -10.03666       -6.94025       -9.89835
H        -11.43761       -7.62516       -9.02918
H         -9.31700      -13.71052      -12.21070
H         -6.83399      -11.87227      -12.18979
H         -6.93553      -13.64074      -12.73959
