96

C          1.48698       -1.23706       -0.55793
O          0.97949       -2.36638        0.03521
C         -0.36070       -2.28833       -0.18518
C         -1.52043       -3.02021        0.07287
C         -1.59715       -4.28030        0.75188
O         -2.48416       -5.09905        0.54653
N         -0.64058       -4.50204        1.69772
C         -2.53304       -2.25240       -0.51304
O         -1.97587       -1.09741       -1.07077
C         -0.64144       -1.17469       -0.85994
C          0.51547       -0.44108       -1.13030
C         -3.92472       -2.46970       -0.53942
C         -4.79608       -3.02775        0.51998
N         -6.07918       -3.01411        0.28522
C         -6.15136       -2.45382       -0.95135
C         -4.83268       -2.11612       -1.44761
C         -4.97699       -1.46027       -2.78872
S         -3.79789       -0.94560       -3.83916
C         -6.46817       -1.42051       -2.95420
C         -7.08271       -2.05963       -1.81177
N         -8.43803       -2.00451       -1.89610
C         -8.62837       -1.35123       -3.00934
C         -7.41440       -0.92763       -3.75247
C         -7.36266       -0.08188       -4.91717
C         -8.01986        1.10826       -4.86763
C         -7.83434        2.07868       -5.93252
C         -8.29095        3.34615       -6.06723
C         -9.25226        4.12872       -5.19679
C         -8.62769        5.39647       -4.56327
N         -7.46176        5.09987       -3.72658
C        -10.54704        4.44385       -5.99302
N        -11.54729        5.18573       -5.22082
C         -7.59301        3.86621       -7.24412
C         -7.52196        5.10252       -7.75540
C         -6.63008        5.45343       -8.93135
C         -5.93383        4.25277       -9.55458
C         -6.01289        3.00642       -9.04842
C         -6.78790        2.81125       -7.85183
C         -6.93246        1.74153       -7.05737
C         -6.35811        0.42173       -7.13472
C         -6.57649       -0.43086       -6.11911
C         -7.45407        6.19335       -9.95648
C         -7.60346        7.52412       -9.94397
C         -8.46877        8.24379      -10.81735
C         -8.86197        7.91746      -12.21051
N         -9.65191        8.76657      -12.81026
C         -9.83808        9.72237      -11.86389
C         -9.11442        9.39702      -10.66126
C         -9.34831       10.45721       -9.63356
S         -8.84277       10.46732       -8.05001
C        -10.19197       11.43626      -10.39627
C        -10.46034       10.88584      -11.71307
N        -11.23860       11.72545      -12.44582
C        -11.40883       12.73438      -11.63843
C        -10.75748       12.63852      -10.31372
C        -10.72147       13.60226       -9.29028
O         -9.96117       13.42907       -8.13985
C        -10.15659       14.53237       -7.38167
C         -9.76972       15.04183       -6.14347
C         -8.92220       14.44353       -5.15575
O         -8.65845       14.98138       -4.08673
N         -8.41384       13.21701       -5.46979
C        -10.42528       16.25677       -6.12532
O        -11.16633       16.48384       -7.26185
C        -10.97171       15.37037       -8.01792
C        -11.37501       14.83796       -9.24383
H          2.56294       -1.14133       -0.48613
H          0.09024       -3.83473        1.90864
H         -0.66647       -5.37425        2.20747
H          0.63463        0.49583       -1.65128
H         -4.35289       -3.39159        1.45865
H         -9.62154       -1.09891       -3.40897
H         -8.58935        1.41901       -3.99743
H         -9.55977        3.48489       -4.36154
H         -9.36778        5.91032       -3.94160
H         -8.32396        6.12117       -5.32030
H         -7.71972        4.43112       -3.00445
H         -7.17371        5.95125       -3.24716
H        -11.00587        3.50371       -6.32573
H        -10.32203        5.02217       -6.89507
H        -11.82440        4.64824       -4.40046
H        -12.39112        5.29626       -5.78416
H         -8.06471        5.92900       -7.31475
H         -5.84134        6.11953       -8.55309
H         -5.32558        4.43230      -10.43549
H         -5.49838        2.17142       -9.50576
H         -5.75413        0.14289       -7.99028
H         -6.13469       -1.42490       -6.15652
H         -8.01261        5.57381      -10.65909
H         -7.09759        8.10763       -9.17436
H         -8.47296        7.00342      -12.68331
H        -11.99778       13.62716      -11.89355
H         -8.62795       12.72914       -6.33340
H         -7.82981       12.75044       -4.79098
H        -10.46968       17.05336       -5.39300
H        -12.02976       15.27432       -9.97971
