85

C         -6.35120       -3.36340        4.12881
O         -5.00861       -3.36591        4.00479
C         -4.67959       -3.86568        2.76254
C         -5.88328       -4.17252        2.11601
C         -6.95952       -3.87712        3.00484
C         -8.41637       -4.01013        2.81880
F         -9.11825       -3.53670        3.88253
F         -8.87365       -3.34780        1.72703
F         -8.78405       -5.31122        2.67335
O         -5.89655       -4.57675        0.82222
C         -6.87411       -5.54292        0.47773
C         -3.31118       -3.98446        2.37523
C         -2.92391       -4.45427        1.18099
C         -1.55424       -4.58753        0.76309
C         -0.98494       -4.09298       -0.36106
C          0.41793       -4.49635       -0.46266
C          0.87671       -5.29605        0.50541
S         -0.40285       -5.59148        1.72252
O         -0.86263       -6.96018        1.00868
O          1.20132       -4.04075       -1.49314
C         -1.72110       -3.24080       -1.28646
C         -1.90128       -3.52035       -2.58501
C         -2.60477       -2.61201       -3.42547
S         -4.29694       -2.78019       -3.64267
C         -4.38936       -1.44822       -4.72012
C         -3.13141       -0.91575       -4.95566
C         -2.10565       -1.55978       -4.17781
C         -0.65637       -1.14738       -4.24765
C         -0.39472        0.09826       -5.12125
C         -0.47208        1.32394       -4.30113
N         -0.54295        2.30203       -3.68281
C         -1.35031        0.22475       -6.32596
C         -1.08503       -0.85528       -7.29241
N         -0.84260       -1.70963       -8.04324
C         -2.82597        0.21970       -5.89359
C         -5.64279       -1.03647       -5.24117
C         -6.48199       -0.14371       -4.67266
C         -7.63490        0.12512       -5.53404
C         -7.67208       -0.54240       -6.69253
S         -6.20310       -1.55778       -6.86919
O         -6.96458       -2.85663       -6.30101
O         -8.58656        1.04275       -5.16439
C         -6.24983        0.45359       -3.37325
C         -7.10798        0.29235       -2.35650
C         -6.89610        0.97223       -1.12934
O         -6.21393        2.15480       -1.07186
C         -6.21635        2.66230        0.20299
C         -6.87674        1.72585        0.99860
C         -7.31064        0.65238        0.15686
C         -8.01919       -0.57868        0.58018
F         -8.24331       -1.44321       -0.44725
F         -7.31048       -1.27279        1.50708
F         -9.23624       -0.31948        1.12341
O         -7.12791        1.75819        2.33372
C         -6.21943        2.52504        3.11597
C         -5.63382        3.92951        0.48745
C         -4.57921        4.38033       -0.20247
H         -6.73304       -2.96106        5.05830
H         -6.66888       -5.86560       -0.54809
H         -7.87576       -5.11163        0.47370
H         -6.81721       -6.42330        1.12598
H         -2.57116       -3.66665        3.10498
H         -3.63831       -4.75505        0.42277
H          1.89192       -5.66325        0.55058
H         -1.21489       -7.59655        1.67535
H          0.67601       -3.40362       -2.00136
H         -2.15597       -2.34186       -0.84903
H         -1.51435       -4.43559       -3.02912
H         -0.09119       -1.99075       -4.66181
H         -0.27626       -0.98524       -3.22777
H          0.63946        0.03094       -5.48575
H         -1.15798        1.17466       -6.84431
H         -3.47328        0.17480       -6.77706
H         -3.06328        1.15967       -5.37602
H         -8.46989       -0.43467       -7.41503
H         -6.72105       -3.65689       -6.82403
H         -8.27038        1.51488       -4.37771
H         -5.34362        1.04485       -3.25942
H         -7.98795       -0.33713       -2.47142
H         -6.33555        2.23384        4.16360
H         -6.47018        3.58787        3.06516
H         -5.17618        2.34325        2.83418
H         -6.04865        4.54616        1.27538
H         -4.12408        3.81217       -1.00816
H         -4.13720        5.34172        0.04032
