128

C         -0.60258        1.99396        2.69401
C          0.04841        0.75882        2.87875
N         -0.43609       -0.51991        3.14135
C         -1.85738       -0.82398        3.25348
C         -2.41962       -1.58288        2.06191
C          0.61024       -1.42636        3.29532
C          1.78581       -0.70076        3.02857
C          1.43601        0.66364        2.81056
C          2.19923        1.82735        2.56574
C          1.56060        3.05776        2.40083
C          0.17578        3.13450        2.46180
C          3.03691       -1.35782        3.04137
C          3.11215       -2.71936        3.31202
C          1.95782       -3.42562        3.60801
C          0.69754       -2.80041        3.62752
C         -0.45146       -3.62257        4.00092
C         -0.79359       -3.81694        5.28393
C         -1.80287       -4.74660        5.68618
C         -3.07818       -4.42494        6.37378
N         -3.90100       -5.41637        6.57400
C         -3.23171       -6.47759        6.05054
C         -1.94281       -6.06266        5.54322
C         -1.23692       -7.25523        4.97908
S          0.33618       -7.37329        4.46246
C         -2.29550       -8.31343        5.07215
C         -3.43704       -7.76077        5.77534
N         -4.44377       -8.66985        5.85083
C         -3.96239       -9.68428        5.18923
C         -2.58627       -9.54022        4.64123
C         -1.94534      -10.45241        3.72669
C         -0.66870      -10.85889        3.94804
C          0.04207      -11.65691        2.95604
C          1.33018      -12.09766        2.87157
C          2.55724      -12.02823        3.78437
C          2.32395      -11.22415        5.09229
N          3.50577      -11.05612        5.95241
C          3.08287      -13.46351        4.10798
N          4.36023      -13.50305        4.82910
C          1.40076      -12.74921        1.55198
C          2.45106      -13.20131        0.85281
C          2.30785      -13.92630       -0.48255
C          0.86790      -13.99071       -0.98248
C         -0.17347      -13.45409       -0.31947
C          0.08264      -12.80374        0.94094
C         -0.71679      -12.10118        1.75394
C         -2.09694      -11.72234        1.58950
C         -2.65916      -10.92896        2.51927
C          2.90083      -15.31965       -0.36078
C          4.20478      -15.51612       -0.09925
C          4.84520      -16.75577        0.19216
C          4.30316      -18.13843        0.14250
N          5.10502      -19.10237        0.50590
C          6.24148      -18.43118        0.83924
C          6.07196      -17.01137        0.64325
C          7.32548      -16.30330        1.05763
S          7.68099      -14.68237        1.01736
C          8.18796      -17.44739        1.49156
C          7.44861      -18.67867        1.32682
N          8.18665      -19.74155        1.74964
C          9.29823      -19.18005        2.13220
C          9.40024      -17.70210        1.97641
C         10.50283      -16.89397        2.44540
C         11.62549      -16.60475        1.63794
N         11.87542      -16.63639        0.26542
C         10.98135      -16.03684       -0.72856
C         10.04226      -16.97180       -1.46391
C         13.25564      -16.65763        0.04805
C         13.82246      -16.13052        1.21131
C         12.80314      -16.10288        2.21180
C         12.82079      -15.76629        3.58307
C         11.69444      -15.99620        4.37108
C         10.56363      -16.57752        3.81377
C         15.19807      -15.81880        1.22670
C         15.97925      -16.08409        0.10138
C         15.41352      -16.67740       -1.02306
C         14.04213      -16.97251       -1.08391
C         13.43793      -17.71275       -2.19310
C         13.82293      -17.63858       -3.47310
H         -1.68123        2.08693        2.73555
H         -2.40545        0.11763        3.35265
H         -2.01566       -1.35978        4.19125
H         -2.20279       -1.06993        1.12075
H         -3.50651       -1.67951        2.15845
H         -2.00744       -2.59270        1.98423
H          3.28311        1.77040        2.51949
H          2.15100        3.95217        2.22524
H         -0.31232        4.10025        2.33003
H          3.94487       -0.79838        2.83310
H          4.07422       -3.22368        3.30452
H          2.03967       -4.48784        3.82943
H         -0.92082       -4.17181        3.18894
H         -0.29045       -3.26773        6.07829
H         -3.28544       -3.38442        6.66625
H         -4.51800      -10.62004        5.01435
H         -0.15225      -10.54062        4.84038
H          3.34024      -11.49605        3.22214
H          1.54234      -11.70459        5.69037
H          1.98295      -10.21664        4.83347
H          3.34664      -11.55701        6.82662
H          3.57334      -10.07567        6.22869
H          3.25231      -14.04345        3.19278
H          2.32604      -14.01066        4.67775
H          4.25712      -14.09357        5.65436
H          4.53082      -12.56094        5.20557
H          3.45905      -13.07367        1.23231
H          2.87782      -13.36642       -1.23559
H          0.69575      -14.47928       -1.93733
H         -1.18282      -13.50645       -0.70982
H         -2.64468      -12.03636        0.70867
H         -3.68508      -10.59741        2.37772
H          2.21163      -16.15862       -0.41010
H          4.84366      -14.63639       -0.02850
H          3.26505      -18.30640       -0.18529
H         10.14514      -19.73194        2.57044
H         11.60787      -15.51610       -1.46413
H         10.42275      -15.24633       -0.21865
H         10.56928      -17.76813       -1.98886
H          9.46674      -16.40499       -2.20412
H          9.33051      -17.45044       -0.79871
H         13.72486      -15.36804        4.03560
H         11.72229      -15.76812        5.43365
H          9.72621      -16.81826        4.46795
H         15.65617      -15.40186        2.11892
H         17.04327      -15.86270        0.11920
H         16.06342      -16.93010       -1.85754
H         12.63815      -18.39714       -1.92590
H         14.62808      -16.99326       -3.80649
H         13.32803      -18.24394       -4.22673
