111

C          3.93729       -4.61109        3.48678
C          3.34873       -5.07095        4.66938
F          3.59335       -4.41083        5.80940
C          2.54830       -6.22194        4.69272
F          2.01857       -6.64146        5.84938
C          2.33694       -6.96935        3.54181
C          2.96299       -6.52548        2.38943
C          3.72922       -5.34280        2.32853
C          4.25364       -5.21066        0.94705
C          4.54002       -4.06950        0.28229
C          4.46910       -2.79345        0.90852
N          4.40332       -1.76547        1.43202
C          4.81319       -4.06561       -1.11850
N          5.01844       -4.09147       -2.26053
C          4.14399       -6.54479        0.34725
C          3.07699       -7.26974        1.12074
O          2.44688       -8.25914        0.82061
C          5.00408       -7.12612       -0.50273
C          4.92861       -8.49206       -0.96965
C          3.95037       -8.84189       -1.82691
C          3.76590      -10.20285       -2.23533
C          4.60489      -11.29089       -1.71513
C          5.64566      -11.12394       -0.90068
S          6.16663       -9.56349       -0.33516
C          4.08382      -12.48328       -2.24966
C          3.00729      -12.19649       -3.05466
C          2.43437      -13.33837       -3.63336
C          3.11584      -14.47268       -3.21354
S          4.43564      -14.11143       -2.14586
C          2.81654      -10.76215       -3.03962
C          1.77287      -10.06129       -3.75587
C          0.46329      -10.25095       -3.52671
C         -0.54528       -9.65580       -4.33914
N         -1.73569      -10.32616       -4.54862
C         -2.23511      -11.53981       -3.92312
C         -1.83797      -12.79119       -4.68265
N         -2.52333       -9.74533       -5.46976
C         -1.88992       -8.61604       -5.78972
C         -0.67844       -8.45978       -5.04571
C          0.20321       -7.24851       -5.00616
C          0.93678       -6.93337       -6.29893
C         -2.49075       -7.73385       -6.83615
C         -3.43587       -6.67583       -6.27427
C         -3.79602       -5.67565       -7.34070
C         -3.51471       -4.36607       -7.25575
C         -3.86769       -3.38194       -8.26503
C         -4.64887       -2.34838       -7.89841
C         -5.04325       -1.32464       -8.82640
C         -4.67945       -1.37606      -10.24784
C         -3.89965       -2.31024      -10.79047
S         -3.19813       -3.61562       -9.87460
C         -5.28389       -0.25614      -10.85363
C         -5.96709        0.46893       -9.90595
C         -6.58228        1.61908      -10.42231
C         -6.33213        1.71279      -11.78489
S         -5.36428        0.40176      -12.38587
C         -5.80208       -0.20445       -8.64057
C         -6.37800        0.25415       -7.39906
C         -5.63660        0.57526       -6.32740
C         -6.17637        0.94330       -5.04069
C         -7.01135        1.94437       -4.72814
C         -7.63409        1.91973       -3.36615
O         -7.28667        1.28658       -2.39206
C         -8.82196        2.78142       -3.46116
C         -8.92350        3.34892       -4.74892
C        -10.03091        4.13175       -5.04167
C        -10.95992        4.38144       -4.02518
C        -10.80639        3.84204       -2.74308
C         -9.73650        3.01142       -2.44607
F        -11.69749        4.12947       -1.78556
F        -12.00682        5.17432       -4.29015
C         -7.67613        3.00192       -5.49925
C         -7.13446        3.74588       -6.49559
C         -5.74958        3.67638       -6.81856
N         -4.61134        3.68983       -7.04048
C         -7.86375        4.75336       -7.19357
N         -8.47106        5.55038       -7.78028
H          4.57354       -3.73379        3.52854
H          1.75857       -7.88625        3.56432
H          5.89211       -6.59652       -0.84369
H          3.22792       -8.11066       -2.17172
H          6.22126      -11.97896       -0.56139
H          1.58889      -13.35809       -4.30687
H          2.91747      -15.50284       -3.47517
H          2.12016       -9.39701       -4.54220
H          0.17708      -10.94449       -2.73953
H         -3.32804      -11.45847       -3.87611
H         -1.88248      -11.57302       -2.88849
H         -2.23475      -12.77451       -5.70315
H         -2.22962      -13.68025       -4.17897
H         -0.75068      -12.88650       -4.74967
H          0.94264       -7.34584       -4.20323
H         -0.41568       -6.38582       -4.72819
H          1.64016       -7.72761       -6.56359
H          1.49716       -5.99882       -6.18854
H          0.25994       -6.79540       -7.14345
H         -3.03363       -8.35453       -7.56270
H         -1.69855       -7.25385       -7.41500
H         -2.97953       -6.17183       -5.41359
H         -4.35508       -7.15005       -5.90932
H         -4.30863       -6.06609       -8.21895
H         -3.02338       -3.97322       -6.36749
H         -5.02883       -2.28441       -6.88344
H         -3.65631       -2.27808      -11.84764
H         -7.16010        2.34546       -9.86846
H         -6.65927        2.48411      -12.46869
H         -7.46336        0.30850       -7.37599
H         -4.54984        0.48632       -6.36747
H         -5.85729        0.26381       -4.24454
H        -10.21392        4.57897       -6.01161
H         -9.61907        2.57593       -1.46000
