98

C          7.00705       -4.70108       -1.89022
C          6.63220       -3.50023       -1.27373
F          7.47927       -2.46244       -1.31065
C          5.40574       -3.36905       -0.61459
F          5.08574       -2.21274       -0.01868
C          4.51893       -4.43340       -0.55243
C          4.90663       -5.61521       -1.16758
C          6.12895       -5.77737       -1.84662
C          6.19184       -7.18009       -2.35832
C          6.98657       -7.63123       -3.36513
C          7.94542       -6.78679       -4.02660
N          8.72000       -6.10996       -4.56562
C          6.86955       -8.94897       -3.89785
N          6.77412      -10.00954       -4.35465
C          5.08385       -7.92066       -1.69735
C          4.14752       -6.87264       -1.16085
O          2.98814       -6.97247       -0.82260
C          4.98692       -9.23469       -1.41861
C          3.95197       -9.94127       -0.66690
C          2.66397       -9.89627       -1.05328
C          1.62773      -10.61009       -0.35900
C          1.87991      -11.38080        0.86205
C          3.08983      -11.56793        1.38749
S          4.54907      -10.93463        0.66660
C          0.62677      -11.86506        1.29466
C         -0.35109      -11.45890        0.41790
C         -1.63253      -11.91756        0.76020
C         -1.56622      -12.66996        1.92597
S          0.04904      -12.79718        2.55464
C          0.28962      -10.68153       -0.61300
C         -0.39857      -10.05696       -1.71301
C         -0.11899      -10.34171       -2.98907
C         -0.78058       -9.66754       -4.04068
N         -1.94948      -10.22518       -4.50148
C         -2.40732       -9.44260       -5.52312
C         -3.47002       -9.32383       -6.44372
C         -3.19439       -8.17185       -7.16173
N         -2.01493       -7.62483       -6.70651
C         -1.54787       -8.40818       -5.69073
C         -0.48412       -8.52527       -4.76693
C         -3.85415       -7.49066       -8.20681
C         -4.96891       -7.98082       -8.77204
C         -5.69882       -7.33162       -9.85323
C         -5.04739       -6.60916      -10.78796
C         -5.72641       -5.93814      -11.86121
C         -7.18356       -6.02097      -12.01223
C         -7.99402       -6.71626      -11.21634
S         -7.43283       -7.63648       -9.85467
C         -7.51163       -5.24480      -13.13641
C         -6.36759       -4.71108      -13.68268
C         -6.63984       -3.93975      -14.82738
C         -8.00274       -3.90068      -15.07595
S         -8.91587       -4.82451      -13.93553
C         -5.24249       -5.14613      -12.86996
C         -3.84176       -4.80327      -13.07445
C         -3.37742       -4.01248      -14.05223
C         -2.00051       -3.69890      -14.32148
C         -1.10996       -3.09268      -13.52943
C          0.31269       -3.07458      -13.98280
O          0.74723       -3.24988      -15.10369
C          1.10822       -2.86485      -12.76752
C          0.26331       -2.70906      -11.64764
C          0.83879       -2.62044      -10.38990
C          2.23438       -2.60944      -10.29599
C          3.04600       -2.70535      -11.43214
C          2.49102       -2.85429      -12.69361
F          4.37816       -2.66333      -11.30531
F          2.79510       -2.49170       -9.08537
C         -1.13950       -2.60920      -12.14567
C         -2.12700       -1.91175      -11.53124
C         -3.26506       -1.41887      -12.23509
N         -4.16263       -0.93533      -12.79459
C         -2.03925       -1.48392      -10.17817
N         -1.95809       -1.17026       -9.06078
H          7.98295       -4.73729       -2.36109
H          3.57536       -4.34711       -0.02482
H          5.78442       -9.91086       -1.72201
H          2.36132       -9.28008       -1.89390
H          3.20924      -12.15379        2.29413
H         -2.54790      -11.73197        0.21359
H         -2.37763      -13.16012        2.44734
H         -1.16491       -9.33129       -1.45576
H          0.64324      -11.07724       -3.26223
H         -2.41361      -11.06689       -4.18082
H         -4.31501       -9.98644       -6.56224
H         -1.54367       -6.78917       -7.02733
H          0.37126       -7.88013       -4.64128
H         -3.44135       -6.54376       -8.54477
H         -5.39786       -8.91587       -8.41512
H         -3.96997       -6.50502      -10.74330
H         -9.06324       -6.73272      -11.40095
H         -5.93427       -3.41952      -15.45760
H         -8.50656       -3.37351      -15.87381
H         -3.12858       -5.25243      -12.38743
H         -4.04044       -3.58265      -14.78917
H         -1.69004       -4.00613      -15.32333
H          0.26881       -2.54608       -9.47137
H          3.11183       -2.95230      -13.57707
