133

C         -1.00315       -2.16062       -2.87736
C         -1.38643       -0.83318       -2.67048
F         -2.57584       -0.58649       -2.10490
C         -0.55370        0.23406       -3.03315
F         -0.96195        1.49366       -2.83153
C          0.70617        0.00880       -3.57485
C          1.08023       -1.31085       -3.75631
C          0.23125       -2.39887       -3.45916
C          0.93952       -3.63968       -3.86468
C          0.36338       -4.76834       -4.33150
C         -1.03868       -5.00955       -4.21989
N         -2.17278       -5.19211       -4.08164
C          1.10959       -5.74828       -5.04917
N          1.69092       -6.52896       -5.68572
C          2.36115       -3.28255       -3.93833
C          2.41769       -1.79982       -4.15788
O          3.36376       -1.12438       -4.49900
C          3.47853       -3.90645       -3.52109
C          3.58630       -5.19855       -2.81250
C          4.77201       -5.94805       -2.91750
C          4.88385       -7.13139       -2.19410
C          3.82030       -7.58319       -1.38097
C          2.66592       -6.84269       -1.24081
C          2.56967       -5.63818       -1.93382
C          4.16242       -8.85486       -0.79597
C          5.44653       -9.22460       -1.22979
C          6.04811       -8.12941       -2.11934
C          6.45310       -8.69424       -3.51008
C          5.32894       -9.30563       -4.34740
C          7.30372       -7.52595       -1.41453
C          7.06256       -6.88303       -0.04444
C          6.01474      -10.42379       -0.83389
C          5.28898      -11.27465        0.01525
C          4.00520      -10.88276        0.45206
C          3.43746       -9.67142        0.05150
C          5.83840      -12.56553        0.44687
S          7.55355      -12.73026        0.67637
C          7.36027      -14.31238        1.11217
C          6.05914      -14.76744        1.12985
C          5.16169      -13.75065        0.73990
C          5.98392      -16.23980        1.55975
C          5.23062      -16.40502        2.88164
C          5.39712      -17.13103        0.46531
C          7.48611      -16.49043        1.73850
C          8.22656      -15.35746        1.48135
S          9.86300      -15.52343        1.66197
C          9.65816      -17.20230        2.07218
C          8.31577      -17.57529        2.08236
C         10.82457      -17.95687        2.34460
C         10.88023      -19.27121        2.08524
C         12.06844      -20.07921        2.37169
C         11.89793      -21.43370        2.69952
C         13.01969      -22.17890        3.02665
C         14.29938      -21.58572        3.02104
C         14.48501      -20.26845        2.65062
C         13.36331      -19.51977        2.31525
C         15.27232      -22.54860        3.46249
C         14.64123      -23.78652        3.68804
C         13.12788      -23.64340        3.46720
C         12.38092      -23.89973        4.81196
C         12.74110      -22.97029        5.97694
C         12.61325      -24.62671        2.37994
C         13.22451      -24.46648        0.98643
C         15.36621      -24.89165        4.11623
C         16.73518      -24.73363        4.36986
C         17.32282      -23.45471        4.24093
C         16.61006      -22.36987        3.74025
C         17.51450      -25.87633        4.86961
C         18.81396      -26.13099        4.64703
C         19.51384      -27.05726        5.59394
O         19.03532      -27.93397        6.28035
C         20.91725      -26.60243        5.60500
C         21.10858      -25.57247        4.65904
C         22.32449      -24.90474        4.63169
C         23.33114      -25.32275        5.50826
C         23.13020      -26.38129        6.40276
C         21.90688      -27.03380        6.47262
F         24.12042      -26.75920        7.22164
F         24.50898      -24.68420        5.48902
C         19.85321      -25.44271        3.86985
C         19.75391      -24.99893        2.59246
C         18.58900      -25.21930        1.79738
N         17.67215      -25.42468        1.11575
C         20.83243      -24.35523        1.92099
N         21.71287      -23.81022        1.40073
H         -1.67686       -2.94884       -2.55904
H          1.36921        0.83110       -3.81780
H          4.42661       -3.36854       -3.58840
H          5.59019       -5.61981       -3.55224
H          1.85605       -7.17708       -0.60193
H          1.67990       -5.04429       -1.75531
H          7.22278       -9.46698       -3.37804
H          6.91962       -7.90086       -4.10763
H          4.79538      -10.09583       -3.81097
H          5.74820       -9.75395       -5.25520
H          4.60486       -8.54873       -4.66393
H          7.77300       -6.77303       -2.06018
H          8.05423       -8.31732       -1.27803
H          6.60304       -5.89574       -0.14954
H          8.01466       -6.74844        0.48111
H          6.42511       -7.49311        0.60129
H          7.00634      -10.68675       -1.18945
H          3.43551      -11.52172        1.12284
H          2.45111       -9.39003        0.40229
H          4.08805      -13.86612        0.66211
H          4.17350      -16.13863        2.77133
H          5.64891      -15.76629        3.66944
H          5.28362      -17.43975        3.23953
H          4.34595      -16.88735        0.27602
H          5.45352      -18.18888        0.74777
H          5.93771      -17.01758       -0.48221
H          7.96911      -18.57070        2.32861
H         11.67640      -17.42480        2.75988
H         10.03119      -19.80231        1.66450
H         10.90970      -21.88222        2.72762
H         15.47039      -19.81789        2.62641
H         13.51398      -18.48442        2.01843
H         12.57652      -24.92858        5.14179
H         11.29707      -23.82911        4.65445
H         13.81357      -22.97310        6.19490
H         12.22647      -23.29948        6.88589
H         12.43040      -21.93917        5.78256
H         11.52393      -24.53082        2.27668
H         12.79794      -25.65716        2.70976
H         12.81001      -23.59475        0.47006
H         12.99316      -25.34633        0.37580
H         14.31307      -24.36624        1.01530
H         14.87026      -25.84607        4.26883
H         18.35102      -23.27639        4.53948
H         17.08659      -21.40412        3.61698
H         16.96704      -26.50907        5.57144
H         22.53370      -24.06538        3.97804
H         21.73359      -27.82836        7.18952
