130

C         20.37164       -1.66681       17.83752
C         21.41033       -1.03102       17.14269
F         22.34750       -0.37676       17.84192
C         21.50110       -1.08308       15.74701
F         22.52199       -0.48695       15.11796
C         20.55753       -1.77079       15.00231
C         19.54072       -2.39396       15.70840
C         19.41252       -2.35610       17.10945
C         18.22162       -3.17520       17.48712
C         17.49742       -3.08316       18.63101
C         17.86798       -2.19853       19.68502
N         18.18453       -1.48238       20.53845
C         16.27944       -3.79592       18.84042
N         15.29775       -4.38427       19.01324
C         17.87825       -3.96751       16.28358
C         18.50333       -3.24726       15.12456
O         18.23293       -3.28526       13.94459
C         17.31357       -5.18432       16.23942
C         17.17095       -5.99090       15.07593
S         15.82614       -7.05257       14.99495
C         16.24155       -7.61985       13.43452
C         17.42307       -7.05832       13.00325
C         17.96943       -6.15534       13.95885
C         15.42653       -8.57031       12.72728
C         15.83908       -9.50415       11.79857
C         14.75380      -10.27258       11.28721
C         13.53672       -9.89837       11.82369
S         13.73393       -8.63074       12.94963
C         12.23178      -10.43396       11.53462
S         12.02361      -11.70715       10.40989
C         10.32442      -11.73366       10.61762
C          9.93101      -10.78410       11.53991
C         11.01859      -10.04203       12.06598
C          9.55826      -12.66438        9.87185
C          8.22616      -12.72799       10.01701
C          7.39306      -13.64542        9.27409
C          7.64020      -14.97276        9.38274
C          6.94364      -15.90120        8.52471
C          7.11638      -17.23601        8.33118
C          7.94837      -18.26401        9.09290
C          9.37850      -18.33603        8.49613
N         10.24985      -19.32183        9.14078
C          7.94099      -18.01575       10.63848
N          8.67007      -18.99819       11.45326
C          6.40738      -17.48898        7.06633
C          6.50717      -18.49727        6.18507
C          5.90236      -18.38500        4.78477
C          4.97663      -17.19059        4.58127
C          4.84596      -16.20993        5.48733
C          5.65964      -16.29853        6.66500
C          5.99291      -15.34595        7.53882
C          5.62997      -13.95229        7.57170
C          6.31104      -13.14901        8.40726
C          5.26062      -19.67691        4.37642
C          3.98001      -20.02318        4.57875
C          3.49320      -21.27278        4.11733
S          1.83328      -21.43765        3.72549
C          2.01324      -23.07882        3.27836
C          3.31780      -23.50057        3.43848
C          4.16451      -22.46388        3.91237
C          0.89010      -23.85673        2.83111
C         -0.23702      -23.42279        2.16225
C         -1.15497      -24.48231        1.89802
C         -0.70202      -25.70033        2.36757
S          0.82298      -25.53645        3.12553
C         -1.37098      -26.97356        2.28785
S         -0.50694      -28.45098        2.17941
C         -1.93675      -29.39397        2.10721
C         -3.05195      -28.57995        2.18443
C         -2.73181      -27.19632        2.27583
C         -1.82200      -30.80728        1.99677
C         -2.91075      -31.58748        1.92980
C         -2.85663      -33.02150        1.84143
C         -2.30647      -33.86134        2.72601
C         -2.05431      -35.25596        2.25267
O         -2.57616      -35.84327        1.32937
C         -0.95359      -35.75122        3.08904
C         -0.62034      -34.80670        4.08395
C          0.47464      -35.06357        4.89635
C          1.17093      -36.26503        4.71840
C          0.79698      -37.19235        3.73842
C         -0.27395      -36.94182        2.89543
F          1.48768      -38.33067        3.59593
F          2.22240      -36.52310        5.50747
C         -1.60404      -33.68511        4.00620
C         -1.93103      -32.84181        5.01824
C         -3.10302      -32.02023        4.98658
N         -4.06821      -31.38045        5.00291
C         -1.21044      -32.79820        6.24659
N         -0.61563      -32.77101        7.23665
H         20.37912       -1.61274       18.92043
H         20.63184       -1.84205       13.92277
H         16.95379       -5.64966       17.15406
H         17.87848       -7.26487       12.04247
H         18.89991       -5.62791       13.79556
H         16.86909       -9.64846       11.49700
H         14.87155      -11.05955       10.55241
H          8.90302      -10.61628       11.83258
H         10.89540       -9.25381       12.79901
H         10.07238      -13.32258        9.17158
H          7.68409      -12.06334       10.68007
H          8.45569      -15.32085        9.99919
H          7.47094      -19.24455        8.94924
H          9.85506      -17.35125        8.55681
H          9.32497      -18.60559        7.43580
H         10.11064      -19.23538       10.16035
H         11.22485      -19.07924        8.97715
H          6.90622      -17.97187       10.99798
H          8.40876      -17.06371       10.87953
H          8.23457      -19.91532       11.35090
H          8.58638      -18.74586       12.43872
H          7.13275      -19.35834        6.39593
H          6.74254      -18.22544        4.09334
H          4.43523      -17.11798        3.64162
H          4.20303      -15.35418        5.32127
H          4.85479      -13.56820        6.92082
H          6.09296      -12.08541        8.43659
H          5.93032      -20.35079        3.84651
H          3.29440      -19.34810        5.08646
H          3.66268      -24.50543        3.22580
H          5.22185      -22.59429        4.10604
H         -0.40068      -22.39254        1.86880
H         -2.09464      -24.34496        1.37685
H         -4.06785      -28.95363        2.17479
H         -3.47672      -26.41295        2.34495
H         -0.82510      -31.24532        1.96529
H         -3.91529      -31.17207        1.90689
H         -3.28034      -33.41748        0.91613
H          0.83173      -34.38117        5.65893
H         -0.55307      -37.63840        2.11280
