100

C          1.03300       -0.99510       -3.77388
C          1.24962        0.38619       -3.79508
F          1.51550        0.97882       -4.96706
C          1.20757        1.15418       -2.62256
F          1.42721        2.47448       -2.68467
C          0.96895        0.56602       -1.38855
C          0.76281       -0.80149       -1.38303
C          0.76720       -1.59440       -2.55313
C          0.47702       -2.99282       -2.14951
C         -0.16971       -3.92585       -2.88868
C         -0.45268       -3.74361       -4.27714
N         -0.66605       -3.57831       -5.40400
C         -0.75838       -5.07957       -2.28127
N         -1.29580       -5.97906       -1.78580
C          0.71199       -3.05164       -0.70417
C          0.62804       -1.65216       -0.18620
O          0.57673       -1.28093        0.96698
C          1.29486       -3.97158        0.07632
C          1.99169       -5.13751       -0.39811
C          1.71465       -6.40541       -0.02260
C          2.72605       -7.27486       -0.61688
C          3.60764       -6.40989       -1.37412
C          3.17689       -5.15133       -1.25842
F          4.69208       -6.79565       -2.05810
C          2.84104       -8.59792       -0.45018
C          3.92951       -9.41678       -0.95092
C          3.74693      -10.68314       -0.51735
C          2.49418      -10.72200        0.24080
C          1.97479       -9.49032        0.28306
F          0.83267       -9.14266        0.88767
C          4.66717      -11.77354       -0.73417
C          5.81801      -11.66854       -1.41739
C          6.69465      -12.77588       -1.53662
O          6.75329      -13.74055       -0.57598
C          7.68610      -14.67950       -0.90273
C          8.23905      -14.30950       -2.12127
C          7.61601      -13.08907       -2.53585
C          7.84812      -12.30819       -3.77261
F          6.97708      -11.27848       -3.93948
F          9.08802      -11.75141       -3.78664
F          7.74508      -13.07095       -4.89045
O          9.17559      -15.09548       -2.70905
C         10.16665      -14.40914       -3.45911
C          7.97394      -15.78689       -0.06282
C          7.71619      -15.71216        1.25319
C          8.01126      -16.75783        2.19723
C          7.93843      -18.08206        1.93024
C          8.32545      -18.80617        3.13439
C          8.55492      -17.80117        4.14945
C          8.35874      -16.59442        3.60953
F          8.90907      -18.04168        5.41800
C          8.47658      -20.13167        3.23695
C          8.93564      -20.86657        4.40689
C          9.04592      -22.16724        4.06116
C          8.61598      -22.31563        2.67165
C          8.27674      -21.11568        2.19572
F          7.82747      -20.86832        0.95905
C          9.51619      -23.18452        4.96266
C         10.54636      -23.98883        4.66373
C         11.06287      -24.98344        5.56752
C         10.45930      -26.08308        6.03968
C         11.14222      -26.76136        7.18850
O         12.26430      -26.57815        7.61204
C         10.15199      -27.67660        7.76369
C          8.95096      -27.64156        7.02705
C          7.91474      -28.47225        7.43860
C          8.11311      -29.30956        8.54417
C          9.31879      -29.31532        9.25004
C         10.36122      -28.48507        8.87180
F          9.47972      -30.13671       10.29538
F          7.12409      -30.13493        8.91279
C          9.14427      -26.72625        5.85293
C          8.34833      -26.68960        4.75496
C          8.77242      -26.15069        3.50589
N          9.09646      -25.78846        2.45187
C          7.05305      -27.27946        4.71037
N          5.98853      -27.74013        4.67864
H          1.09897       -1.54275       -4.70733
H          0.97305        1.14902       -0.47567
H          1.45191       -3.75771        1.13503
H          0.92430       -6.72665        0.63831
H          3.65503       -4.28474       -1.68511
H          4.76362       -9.04010       -1.51976
H          2.06987      -11.60491        0.69031
H          4.38482      -12.72399       -0.28145
H          6.11772      -10.73571       -1.88022
H         10.99582      -15.10171       -3.63233
H         10.56333      -13.54372       -2.91774
H          9.78072      -14.12166       -4.43982
H          8.43930      -16.66005       -0.50984
H          7.30200      -14.80039        1.68129
H          7.66525      -18.53309        0.98933
H          8.45620      -15.64847        4.11619
H          9.19324      -20.43119        5.35976
H          8.57495      -23.23835        2.11876
H          9.01947      -23.24084        5.92836
H         11.09293      -23.86418        3.72850
H         12.07316      -24.74731        5.91319
H          6.95336      -28.53640        6.94476
H         11.30169      -28.48275        9.41171
