91

C          4.99528       -8.93920       12.00111
C          4.12683       -7.98032       12.54361
F          3.80317       -8.06358       13.84033
C          3.58022       -6.95862       11.76123
F          2.73746       -6.06985       12.30145
C          3.87636       -6.87296       10.41390
C          4.72190       -7.84329        9.89764
C          5.31221       -8.86658       10.65202
C          6.15142       -9.69422        9.73315
C          7.18200      -10.48991       10.11345
C          7.53081      -10.68893       11.48107
N          7.80596      -10.83582       12.59835
C          8.05785      -11.12213        9.18104
N          8.76683      -11.63157        8.41910
C          5.77803       -9.29658        8.34447
C          5.04087       -7.99463        8.48333
O          4.71166       -7.17190        7.65895
C          5.88078      -10.02392        7.21670
C          5.48673       -9.63863        5.89692
C          5.54173       -8.42603        5.22339
C          5.24348       -8.46163        3.81123
C          5.22111       -7.50991        2.72832
C          5.04652       -8.02077        1.38287
C          4.90775       -9.40540        1.25847
N          4.84729      -10.27958        2.26256
C          5.00486       -9.79070        3.49114
S          4.93910      -10.85034        4.81350
S          4.80321       -9.99966       -0.33394
C          4.83950       -8.43548       -0.94203
C          4.94324       -7.49101        0.04502
F          4.93308       -6.22135       -0.25754
F          4.75822       -8.15558       -2.21588
C          5.40578       -6.02240        2.99031
S          6.37449       -5.08534        1.89037
C          6.13493       -3.57816        2.67606
C          5.32026       -3.76052        3.77486
C          5.00910       -5.16101        4.02594
C          4.37327       -5.48543        5.35205
C          3.40275       -4.44364        5.93347
C          2.04356       -5.00013        5.95927
N          0.95858       -5.41980        5.96886
C          3.37946       -3.10194        5.18242
C          2.84209       -2.04258        6.05251
N          2.44912       -1.20808        6.74967
C          4.77459       -2.69696        4.68729
C          6.75784       -2.34270        2.20307
C          7.27584       -1.28337        2.94849
C          7.83266       -0.20906        2.14574
C          8.45507        1.03922        2.41661
C          8.95658        1.84848        1.37408
C          8.76973        1.36054        0.08648
N          8.17794        0.19638       -0.21980
C          7.72783       -0.54408        0.80465
S          6.94195       -2.01928        0.52621
S          9.34572        2.39600       -1.13863
C          9.80352        3.55186        0.00675
C          9.60835        3.11875        1.29060
F          9.86570        3.86163        2.33576
F         10.26833        4.73497       -0.30132
C          8.69345        1.42846        3.81137
C          7.87860        2.08345        4.65287
C          8.16660        1.90354        6.12535
O          9.21822        1.62278        6.65955
C          6.85294        1.98963        6.79099
C          5.86727        2.35643        5.85625
C          4.53210        2.32202        6.23869
C          4.22017        1.94931        7.54679
C          5.21953        1.60961        8.46257
C          6.56241        1.62633        8.09765
F          4.88653        1.23251        9.70344
F          2.93237        1.90286        7.91280
C          6.53454        2.66179        4.55520
C          6.02739        3.52408        3.63920
C          6.70899        4.02946        2.49802
N          7.11297        4.54147        1.54435
C          4.75810        4.12140        3.79118
N          3.70806        4.61536        3.92236
H          5.35965       -9.71609       12.66308
H          3.43543       -6.10451        9.78893
H          6.29123      -11.03110        7.27421
H          5.86897       -7.53586        5.72844
H          5.22930       -5.50963        6.04542
H          3.90692       -6.47041        5.34406
H          3.69863       -4.27711        6.98157
H          2.71980       -3.19138        4.30680
H          5.46415       -2.54098        5.52718
H          4.69026       -1.74293        4.15248
H          7.28310       -1.27498        4.03192
H          9.61601        0.99683        4.21106
H          3.70767        2.53903        5.56981
H          7.33150        1.33249        8.80275
