98

C         -1.50935       -3.85394       -3.90458
C         -1.75039       -2.97323       -4.96304
F         -2.77203       -3.22647       -5.79214
C         -0.94558       -1.84667       -5.17583
F         -1.21438       -1.02033       -6.19551
C          0.14698       -1.58358       -4.35861
C          0.38287       -2.47244       -3.32240
C         -0.44520       -3.58600       -3.05677
C          0.07332       -4.25397       -1.83381
C         -0.67570       -4.90260       -0.91144
C         -2.02993       -5.27587       -1.15219
N         -3.12650       -5.58813       -1.36624
C         -0.21350       -5.12375        0.41679
N          0.16007       -5.25367        1.50948
C          1.44811       -3.76819       -1.65976
C          1.55434       -2.47438       -2.41780
O          2.43271       -1.64610       -2.37462
C          2.59095       -4.37441       -1.29115
C          2.67473       -5.76717       -1.05596
N          2.63412       -6.24431        0.22879
C          2.68700       -7.62444        0.23703
C          2.54909       -8.22991        1.51425
C          3.32265       -9.25039        1.91045
C          3.03246       -9.92810        3.11569
N          2.15474      -10.98245        3.07557
C          2.05209      -11.54837        4.32083
C          2.85318      -10.82698        5.18127
C          3.46514       -9.79683        4.41871
C          2.81015       -8.03271       -1.08617
C          2.86069       -6.85488       -1.88570
C          2.82307       -9.43836       -1.60905
N          2.64053      -10.56029       -0.83823
C          2.72996      -11.66092       -1.63496
C          2.69815      -13.07332       -1.59100
C          2.88241      -13.46820       -2.90356
N          2.99995      -12.35730       -3.71027
C          2.92283      -11.24844       -2.90974
C          2.97917       -9.82952       -2.93232
C          3.01413      -14.74389       -3.49638
C          1.92862      -15.42934       -3.88218
C          2.05387      -16.72914       -4.43381
N          1.09496      -17.15229       -5.31870
C          1.41123      -18.39873       -5.82798
C          0.56067      -18.85439       -6.87117
C          1.03488      -19.58261       -7.89099
C          0.20036      -19.99963       -8.95333
N          0.81492      -20.33191      -10.13852
C         -0.12865      -20.62610      -11.08544
C         -1.36563      -20.54286      -10.49036
C         -1.15922      -20.16784       -9.13913
C          2.55244      -18.82815       -5.15923
C          2.96104      -17.76068       -4.30719
C          3.30559      -20.03928       -5.32930
C          2.87145      -21.28429       -5.57843
C          3.82390      -22.31564       -6.11916
O          5.02856      -22.36106       -5.99696
C          2.98456      -23.21431       -6.94824
C          1.63501      -22.82336       -6.85653
C          0.70113      -23.34451       -7.73810
C          1.11754      -24.34864       -8.60972
C          2.43983      -24.81426       -8.60113
C          3.40520      -24.23134       -7.78457
F          2.79100      -25.82486       -9.40669
F          0.22952      -24.87646       -9.46276
C          1.53717      -21.85057       -5.74629
C          0.52040      -21.80501       -4.85577
C          0.66518      -21.16532       -3.59067
N          0.78506      -20.72350       -2.52475
C         -0.66659      -22.57100       -5.03800
N         -1.61318      -23.22039       -5.20540
H         -2.15258       -4.72024       -3.79829
H          0.79388       -0.73358       -4.54551
H          3.53341       -3.83180       -1.36958
H          2.47537       -5.67758        1.05435
H          1.78539       -7.83945        2.18654
H          4.13896       -9.62546        1.29691
H          1.65398      -11.30528        2.25719
H          1.42497      -12.41570        4.48712
H          2.99007      -11.02617        6.23017
H          4.15845       -9.05037        4.78417
H          2.97165       -6.80988       -2.96164
H          2.46893      -10.60846        0.15198
H          2.58520      -13.71872       -0.72982
H          3.13863      -12.32526       -4.71184
H          3.12629       -9.19359       -3.79322
H          4.01611      -15.15197       -3.60053
H          0.93895      -14.98773       -3.77628
H          0.32162      -16.58252       -5.63507
H         -0.47929      -18.53206       -6.87217
H          2.08884      -19.84268       -7.93362
H          1.81220      -20.30861      -10.30595
H          0.16355      -20.86290      -12.09963
H         -2.31461      -20.71968      -10.98056
H         -1.93350      -20.01745       -8.39724
H          3.83302      -17.74569       -3.66454
H          4.38832      -19.89412       -5.30899
H         -0.32567      -22.99467       -7.78624
H          4.43744      -24.56005       -7.81374
