80

C         -2.08859       -2.97916        3.69317
C         -2.86626       -3.90994        4.38889
F         -4.05075       -3.52167        4.88035
C         -2.44424       -5.23467        4.55779
F         -3.21860       -6.10052        5.22464
C         -1.24823       -5.67809        4.00848
C         -0.50141       -4.74929        3.30207
C         -0.87532       -3.39885        3.16605
C          0.16959       -2.70863        2.36417
C          0.49007       -1.39463        2.43984
C         -0.20756       -0.49194        3.29361
N         -0.78072        0.21831        4.01129
C          1.61654       -0.84850        1.75797
N          2.53237       -0.41491        1.19570
C          0.94352       -3.77388        1.69983
C          0.69868       -5.02863        2.49406
O          1.31289       -6.07256        2.48210
C          1.57837       -3.75743        0.51470
C          2.21259       -4.87886       -0.11357
C          3.53508       -5.18626        0.11456
F          4.31003       -4.49271        0.90996
S          4.07143       -6.54139       -0.74486
C          2.54480       -6.73248       -1.45577
F          2.28572       -7.70523       -2.29450
C          1.62803       -5.76744       -1.08320
C          0.28980       -5.66912       -1.60762
C         -0.07915       -6.09517       -2.82726
C         -1.38635       -5.91729       -3.33657
N         -1.81438       -6.85561       -4.25097
C         -3.04915       -6.48133       -4.69412
C         -4.07753       -6.86745       -5.58522
C         -5.07312       -5.92463       -5.40358
N         -4.65384       -4.98703       -4.48367
C         -3.41321       -5.35001       -4.04461
C         -2.37817       -4.96598       -3.15783
C         -6.35905       -5.72648       -5.95349
C         -6.66582       -6.09985       -7.20605
C         -7.88799       -5.76187       -7.88098
C         -8.46925       -6.63343       -8.77546
F         -7.96124       -7.80793       -9.07166
S         -9.92032       -6.07470       -9.43699
C         -9.80365       -4.63291       -8.55693
F        -10.70864       -3.68872       -8.62671
C         -8.66983       -4.53999       -7.77695
C         -8.43031       -3.35989       -6.97787
C         -7.23403       -2.82118       -6.68251
C         -7.06024       -1.72197       -5.74815
C         -5.90020       -1.16229       -5.37032
C         -5.86205       -0.29298       -4.14344
O         -6.78559        0.26549       -3.59271
C         -4.46126       -0.33895       -3.67099
C         -3.67690       -1.10506       -4.55597
C         -2.37398       -1.42789       -4.20228
C         -1.86189       -0.89844       -3.01365
C         -2.63554       -0.06975       -2.19094
C         -3.96154        0.20976       -2.50091
F         -2.10186        0.43746       -1.07123
F         -0.60723       -1.20251       -2.65353
C         -4.50360       -1.37823       -5.76167
C         -4.02108       -1.40422       -7.02941
C         -4.87046       -1.23685       -8.16305
N         -5.55693       -1.06150       -9.07820
C         -2.62857       -1.41159       -7.31145
N         -1.48467       -1.40504       -7.51891
H         -2.47791       -1.97453        3.56769
H         -0.93757       -6.71290        4.10053
H          1.60895       -2.84396       -0.07371
H         -0.45233       -5.19190       -0.97164
H          0.64686       -6.57492       -3.47961
H         -1.33574       -7.69190       -4.56256
H         -4.09941       -7.72500       -6.24398
H         -5.14898       -4.16641       -4.16104
H         -2.34090       -4.10652       -2.50446
H         -7.08825       -5.18370       -5.35739
H         -5.95056       -6.68680       -7.78051
H         -9.32497       -2.87495       -6.58758
H         -6.34106       -3.27648       -7.09867
H         -7.97059       -1.40067       -5.23611
H         -1.73821       -2.07523       -4.79885
H         -4.57319        0.82307       -1.84844
