81

C          2.41102        0.07258       -2.31911
C          3.13705        0.95969       -3.12190
F          3.17681        2.25333       -2.77630
C          3.83606        0.52230       -4.25395
F          4.51514        1.40231       -5.00103
C          3.87094       -0.82230       -4.59040
C          3.17591       -1.68951       -3.76538
C          2.40394       -1.26903       -2.66531
C          1.76533       -2.47283       -2.06111
C          0.59579       -2.49506       -1.37868
C         -0.13408       -1.31466       -1.07618
N         -0.72708       -0.34306       -0.85553
C         -0.05427       -3.71767       -1.02333
N         -0.58744       -4.71712       -0.76155
C          2.50460       -3.63080       -2.59222
C          3.21515       -3.15679       -3.83070
O          3.71989       -3.81103       -4.71683
C          2.68657       -4.84429       -2.04669
C          3.50373       -5.90728       -2.55352
C          4.81743       -6.05288       -2.16702
F          5.44239       -5.19160       -1.40326
S          5.53251       -7.47706       -2.73800
C          4.09726       -7.91886       -3.52847
F          3.97352       -9.04036       -4.19304
C          3.08892       -6.98505       -3.41539
C          1.81586       -7.15005       -4.06938
C          1.12030       -6.13166       -4.60564
C         -0.18536       -6.08592       -5.29316
C         -0.58643       -4.92163       -6.00763
C         -1.87426       -4.80922       -6.63499
N         -2.22865       -3.66200       -7.26487
C         -1.32767       -2.64851       -7.34635
C         -0.07943       -2.76410       -6.78960
N          0.27779       -3.87597       -6.09286
C          0.92160       -1.74166       -6.91242
N          1.70914       -0.89909       -7.01729
C         -1.76282       -1.46649       -8.02720
N         -2.08777       -0.48889       -8.56342
C         -2.79295       -5.87002       -6.60330
C         -2.44287       -7.05236       -5.89517
C         -1.11558       -7.15730       -5.20727
N         -0.98530       -8.31645       -4.53919
S         -2.40189       -9.14915       -4.69501
N         -3.19356       -8.16138       -5.76035
C         -4.11412       -5.80161       -7.21376
C         -5.23213       -5.77927       -6.39959
F         -5.17123       -5.81320       -5.09133
S         -6.69557       -5.69677       -7.23924
C         -5.87010       -5.61509       -8.71165
F         -6.49136       -5.49843       -9.85793
C         -4.49627       -5.67574       -8.59637
C         -3.68598       -5.52881       -9.77034
C         -2.54852       -6.11897      -10.15970
C         -1.73341       -7.10304       -9.51127
C         -1.92675       -8.40452       -9.26196
C         -0.82166       -9.04253       -8.46281
O          0.24205       -8.55318       -8.14026
C         -1.31646      -10.35283       -8.04413
C         -2.59852      -10.58195       -8.57412
C         -3.28169      -11.71459       -8.14397
C         -2.66644      -12.57262       -7.22276
C         -1.38544      -12.31570       -6.72781
C         -0.68305      -11.19471       -7.13958
F         -0.84832      -13.12510       -5.80597
F         -3.34495      -13.64125       -6.78364
C         -2.96787       -9.42952       -9.46880
C         -3.97099       -9.45453      -10.38256
C         -4.26287       -8.39746      -11.28982
N         -4.55465       -7.58599      -12.06669
C         -4.78812      -10.60457      -10.59204
N         -5.43543      -11.54965      -10.77944
H          1.91066        0.46443       -1.44093
H          4.42861       -1.17274       -5.45206
H          2.22973       -5.07713       -1.08758
H          1.45739       -8.17186       -4.16613
H          1.59076       -5.15792       -4.57560
H         -4.09792       -4.82991      -10.50509
H         -2.13612       -5.78979      -11.11700
H         -0.76661       -6.67125       -9.23388
H         -4.29127      -11.96349       -8.44831
H          0.29127      -10.96032       -6.72371
