106

C         -0.56854      -10.66348        5.35257
C         -0.57311      -10.83187        6.74013
F         -0.92511      -12.02119        7.24383
C         -0.20826       -9.79028        7.60607
F         -0.24713       -9.98208        8.92987
C          0.22481       -8.56529        7.11118
C          0.24732       -8.42367        5.73633
C         -0.19262       -9.42984        4.84983
C         -0.09908       -8.88710        3.47611
C         -0.93108       -9.16397        2.44414
C         -1.88177      -10.21588        2.50450
N         -2.64786      -11.08923        2.57265
C         -0.97403       -8.34934        1.27127
N         -1.02952       -7.67105        0.33386
C          0.84618       -7.77111        3.55065
C          0.83797       -7.30075        4.97519
O          1.29656       -6.27922        5.43171
C          1.84449       -7.36210        2.75194
C          2.25984       -8.02963        1.56684
S          2.26004       -9.73982        1.32047
C          2.94760       -9.64448       -0.26455
C          3.26140       -8.33903       -0.46393
C          2.89287       -7.42010        0.51766
S          3.33804       -5.70090        0.23415
C          4.20312       -6.29823       -1.17561
C          5.10064       -5.42429       -1.91405
O          5.86660       -5.81657       -2.78495
O          5.04635       -4.14853       -1.44256
C          6.18941       -3.31593       -1.66988
C          6.40813       -2.95518       -3.12569
C          4.02363       -7.66528       -1.45010
C          3.15123      -10.83915       -1.00736
C          3.15650      -10.86275       -2.35249
C          3.42230      -12.04480       -3.13146
S          3.78891      -13.55603       -2.36972
C          4.03620      -14.35335       -3.83830
C          3.82779      -13.54618       -4.93403
C          3.95226      -14.06215       -6.33427
C          3.47462      -12.19829       -4.52226
C          3.17744      -11.12448       -5.44031
C          3.80666      -10.93642       -6.61059
C          3.45786       -9.93351       -7.58311
C          4.09676       -9.85508       -8.76057
C          3.82654       -8.85632       -9.72366
S          3.99132       -9.16044      -11.40791
C          3.57730       -7.54340      -11.85232
C          3.35904       -6.84590      -10.70941
C          3.50719       -7.54140       -9.50770
S          3.29102       -6.59162       -7.99087
C          2.89438       -5.24335       -9.03727
C          2.50368       -3.98648       -8.42349
O          2.71044       -2.87736       -8.89960
O          1.82300       -4.22278       -7.26451
C          1.35641       -3.07499       -6.54902
C          2.46022       -2.55333       -5.65067
C          3.03691       -5.49182      -10.41371
C          3.61870       -7.18750      -13.21730
C          2.52153       -7.21721      -13.99066
C          2.56201       -7.02409      -15.42904
C          3.32761       -6.16084      -16.11481
C          3.60837       -6.46155      -17.55526
O          2.92953       -7.08879      -18.33872
C          4.96388       -5.92680      -17.79403
C          5.43252       -5.24102      -16.65195
C          6.74538       -4.79587      -16.62277
C          7.53404       -4.99176      -17.76076
C          7.03041       -5.63265      -18.89856
C          5.73310       -6.12608      -18.92739
F          7.81380       -5.79151      -19.97527
F          8.80044       -4.55331      -17.74891
C          4.30951       -5.16011      -15.68338
C          4.11802       -4.19415      -14.75377
C          2.85352       -4.00157      -14.12418
N          1.81835       -3.81999      -13.63087
C          5.12741       -3.25134      -14.40881
N          5.97350       -2.51364      -14.12540
H         -0.83310      -11.50607        4.72221
H          0.55763       -7.77591        7.77687
H          2.45447       -6.51907        3.07980
H          7.07454       -3.78931       -1.23000
H          6.00691       -2.39607       -1.10318
H          6.69036       -3.82544       -3.72339
H          7.21666       -2.22437       -3.21413
H          5.49572       -2.54290       -3.56499
H          4.51511       -8.14473       -2.29026
H          3.29770      -11.74549       -0.42683
H          2.96621       -9.94574       -2.90325
H          4.31347      -15.39812       -3.83961
H          4.01640      -15.15471       -6.34915
H          4.86611      -13.68560       -6.80431
H          3.08717      -13.77286       -6.93890
H          2.37549      -10.44211       -5.16303
H          4.64510      -11.56989       -6.87986
H          2.65016       -9.25559       -7.32340
H          4.85227      -10.59572       -9.01649
H          0.50745       -3.40158       -5.93879
H          0.98578       -2.30440       -7.23354
H          2.78895       -3.33411       -4.95626
H          2.11716       -1.68961       -5.07575
H          3.33754       -2.26202       -6.23660
H          2.86186       -4.71573      -11.14865
H          4.60165       -6.97214      -13.62283
H          1.56063       -7.52738      -13.57907
H          1.96344       -7.75096      -15.98334
H          7.19681       -4.31349      -15.76287
H          5.35147       -6.65634      -19.79256
