81

C          7.08741       -7.87214       -8.81418
C          7.02164       -7.72053      -10.20104
F          8.10046       -7.26726      -10.85308
C          5.85524       -8.02944      -10.91393
F          5.84119       -7.90890      -12.24811
C          4.69871       -8.43450      -10.25673
C          4.76716       -8.54276       -8.87718
C          5.95953       -8.33511       -8.15346
C          5.68849       -8.69941       -6.74474
C          6.56800       -9.32874       -5.93435
C          7.96043       -9.38673       -6.21220
N          9.09776       -9.39524       -6.45220
C          6.13925      -10.02795       -4.76345
N          5.78486      -10.62293       -3.83092
C          4.23564       -8.59694       -6.56251
C          3.64425       -8.78146       -7.94202
O          2.49874       -9.01851       -8.24697
C          3.45407       -8.14120       -5.56736
C          3.78338       -7.59745       -4.26348
C          5.01873       -7.14675       -3.83743
F          6.07857       -7.06043       -4.59764
S          5.07962       -6.69444       -2.20419
C          3.40835       -6.87772       -2.06420
F          2.74900       -6.59520       -0.96916
C          2.81286       -7.31329       -3.22606
C          1.39262       -7.42336       -3.33680
C          0.60836       -6.41046       -3.75575
C         -0.87881       -6.53846       -3.93593
S         -1.61152       -4.99434       -4.53747
C         -2.44173       -5.74425       -5.96183
C         -1.70443       -7.06350       -6.28106
C         -1.28702       -7.63506       -4.92415
C         -0.49927       -6.72627       -7.21298
O          0.64739       -6.51499       -6.83215
N         -0.80298       -6.57482       -8.54422
N         -2.66969       -7.97072       -6.98811
C         -2.40828       -9.19718       -7.54837
C         -1.46223      -10.12920       -7.16561
F         -0.64388       -9.99445       -6.15906
S         -1.49055      -11.55870       -8.07216
C         -2.77839      -10.98217       -8.99666
F         -3.31601      -11.68203       -9.96347
C         -3.19319       -9.71258       -8.65108
C         -4.25974       -9.07216       -9.37781
C         -4.37672       -7.75721       -9.61870
C         -5.45176       -7.16601      -10.38263
C         -5.31418       -6.44803      -11.50736
C         -6.42363       -5.51512      -11.88344
O         -7.57937       -5.54148      -11.51916
C         -5.79455       -4.47788      -12.72047
C         -4.43103       -4.77338      -12.93830
C         -3.65588       -3.85750      -13.63742
C         -4.27238       -2.70249      -14.13400
C         -5.63428       -2.45276      -13.92842
C         -6.41805       -3.33819      -13.20264
F         -6.19367       -1.34390      -14.42978
F         -3.53507       -1.82511      -14.82827
C         -4.16374       -6.12419      -12.36268
C         -3.22210       -6.99210      -12.80674
C         -3.32543       -8.39548      -12.57679
N         -3.42936       -9.54505      -12.46064
C         -2.14858       -6.60554      -13.65737
N         -1.25976       -6.28173      -14.32816
H          8.00715       -7.60842       -8.30354
H          3.78568       -8.63453      -10.80458
H          2.38486       -8.13005       -5.79412
H          0.95461       -8.38464       -3.07643
H          1.07298       -5.45725       -4.00670
H         -1.32259       -6.74664       -2.95555
H         -2.45542       -5.03935       -6.79944
H         -3.48203       -5.92376       -5.66626
H         -0.44645       -8.31740       -5.04625
H         -2.10610       -8.22177       -4.48949
H         -1.55754       -7.15717       -8.88179
H          0.01323       -6.51572       -9.14167
H         -3.63595       -7.83254       -6.68584
H         -4.98699       -9.74286       -9.83989
H         -3.65858       -7.04729       -9.22191
H         -6.42296       -7.19160       -9.88344
H         -2.59626       -3.98553      -13.82786
H         -7.46884       -3.14061      -13.02253
