97

C          4.43947       -1.81293        2.11260
C          5.79582       -1.91081        2.44840
F          6.28981       -1.09164        3.38653
C          6.63739       -2.84335        1.83181
F          7.93180       -2.90456        2.16903
C          6.14140       -3.72347        0.88332
C          4.80026       -3.61474        0.56402
C          3.93345       -2.65634        1.13276
C          2.58817       -2.81363        0.50368
C          1.62167       -1.86646        0.44706
C          1.74153       -0.59948        1.08805
N          1.84503        0.42783        1.61194
C          0.44240       -2.03421       -0.33309
N         -0.51077       -2.17650       -0.97705
C          2.61189       -4.11154       -0.21352
C          4.06507       -4.50075       -0.33985
O          4.58745       -5.34451       -1.02547
C          1.59662       -4.93356       -0.53950
C          1.83508       -6.25083       -1.02638
C          2.01594       -6.73677       -2.30293
C          2.42537       -8.12813       -2.33024
C          2.73454       -8.80717       -3.51928
C          2.61779       -7.98979       -4.66403
C          2.20616       -6.62436       -4.62820
C          1.88556       -5.93420       -3.44248
C          2.47892       -8.69539       -1.06805
S          1.95720       -7.53270        0.11337
C          2.83955       -9.97203       -0.55149
C          3.79828      -10.75192       -1.07348
N          4.28406      -11.95753       -0.54533
C          3.45006      -12.81806        0.14670
C          2.16432      -13.11389       -0.27155
S          1.32725      -14.13120        0.81691
C          2.67578      -14.20633        1.86320
C          3.75097      -13.49307        1.37863
N          4.94747      -13.40279        2.04551
C          6.10815      -13.96708        1.33771
C          6.31630      -13.34670       -0.02786
O          7.01326      -13.91192       -0.87970
C          5.74238      -11.96733       -0.26191
C          5.06886      -12.60245        3.17834
C          6.13575      -12.30138        3.93283
C          6.06597      -11.35530        4.99933
C          5.32436      -10.20406        5.19581
C          5.55800       -9.58695        6.48891
C          4.87430       -8.44031        6.92445
C          3.93881       -7.96368        5.97747
C          3.72951       -8.55446        4.69986
C          4.42895       -9.68495        4.24729
C          6.55583      -10.20854        7.22031
S          7.10582      -11.60348        6.34769
C          7.10474       -9.90560        8.51233
C          8.38839      -10.16373        8.81632
C          8.97727       -9.94096       10.11862
C         10.07195      -10.55098       10.60152
C         10.74577       -9.95874       11.80766
O         10.27347       -9.20503       12.62831
C         12.13632      -10.42769       11.73926
C         12.32214      -11.29805       10.64221
C         13.60137      -11.76882       10.38026
C         14.64080      -11.39279       11.23914
C         14.41827      -10.55623       12.33849
C         13.15398      -10.04888       12.60049
F         15.43431      -10.23083       13.14808
F         15.87432      -11.85716       10.99822
C         10.98090      -11.56392       10.04236
C         10.64212      -12.68948        9.36500
C          9.29419      -13.16170        9.30960
N          8.22518      -13.60666        9.31591
C         11.60451      -13.53857        8.74712
N         12.39298      -14.18379        8.18982
H          3.83980       -1.08497        2.64743
H          6.77695       -4.47139        0.42126
H          0.55745       -4.68327       -0.35361
H          3.03976       -9.84080       -3.60139
H          2.85933       -8.42563       -5.63396
H          2.14463       -6.08376       -5.57278
H          1.58385       -4.89579       -3.44305
H          2.38584      -10.27920        0.38907
H          4.37800      -10.44233       -1.93903
H          1.66444      -12.76287       -1.16442
H          2.62095      -14.78180        2.77603
H          5.95890      -15.04556        1.21724
H          7.03720      -13.82332        1.89683
H          6.28571      -11.53891       -1.11474
H          5.96874      -11.32264        0.59674
H          4.10316      -12.16343        3.42723
H          7.08886      -12.78996        3.76171
H          5.01921       -7.94870        7.87673
H          3.34466       -7.08539        6.22897
H          2.98972       -8.11437        4.03086
H          4.25547      -10.07368        3.25314
H          6.43665       -9.48119        9.25766
H          9.05467      -10.55262        8.05025
H          8.52409       -9.13887       10.70522
H         13.84752      -12.41777        9.54834
H         12.97682       -9.38423       13.43879
