126

N         10.29979       -0.95414       -4.82610
C         10.21624        0.20038       -4.09996
C          9.88971        0.19158       -2.76156
S          9.96718        1.74856       -2.06612
C         10.41987        2.43699       -3.56072
C         10.40604        1.53447       -4.60973
N         10.59104        1.88852       -5.93645
C         11.06154        0.85900       -6.89953
C         12.09556       -0.07431       -6.32333
O         13.29751        0.03938       -6.58301
C         11.57478       -1.23243       -5.50434
C         10.12658        3.08391       -6.49873
C          9.38821        4.08466       -5.99514
C          8.96168        5.26608       -6.70752
C          9.25687        5.47441       -8.01233
C          8.56748        6.63193       -8.51512
C          8.68370        7.07861       -9.85056
N          8.81425        7.38397      -10.96096
C          7.82686        7.16695       -7.53568
C          8.02821        6.36461       -6.31700
C          7.45276        6.60469       -5.11437
C          6.31399        7.50397       -4.82398
C          6.02772        7.36895       -3.51169
C          6.95933        6.45750       -2.89469
C          7.81081        6.00602       -3.82694
C          6.98372        6.15749       -1.51591
N          6.98571        5.90928       -0.37572
C          5.53266        8.38497       -5.64558
C          4.84658        8.01780       -6.73977
C          4.10879        8.94534       -7.59572
C          3.49940        8.45468       -8.70840
C          2.70099        9.32237       -9.55935
C          1.97158        9.08835      -10.68686
C          1.79711        7.81909      -11.51456
C          3.15407        7.27649      -12.04486
N          3.04365        6.06207      -12.86664
C          0.92503        6.73783      -10.81586
N          1.45434        6.17616       -9.57341
C          1.36445       10.39503      -11.01041
C          0.53942       10.80279      -11.98921
C          0.10588       12.26543      -12.12776
C          0.56602       13.17636      -10.99726
C          1.38290       12.76398      -10.01805
C          1.79424       11.38886      -10.02975
C          2.59102       10.74331       -9.17622
C          3.29443       11.25366       -8.03636
C          4.01396       10.39286       -7.30256
C          0.57120       12.79288      -13.46425
C          1.76006       13.37374      -13.71844
C          2.12332       13.84624      -15.02935
C          1.34910       14.74804      -15.68037
C          1.82809       14.93046      -17.02627
C          1.23835       15.76200      -18.00270
N          0.77110       16.43340      -18.82647
C          2.89873       14.14982      -17.22392
C          3.19160       13.43675      -15.98109
C          4.24053       12.60210      -15.79847
C          5.22281       12.12333      -16.80405
C          6.09070       11.32551      -16.14515
C          5.74050       11.26444      -14.74599
C          4.63541       11.98864      -14.52366
C          6.49067       10.55193      -13.77910
N          7.12606        9.97994      -12.99436
C          5.31832       12.25849      -18.23869
C          5.61830       13.39258      -18.88803
N          5.70609       13.59876      -20.26224
C          5.03146       12.83379      -21.18743
C          3.66408       12.64362      -21.14810
S          3.10529       11.66684      -22.42933
C          4.68904       11.48984      -23.04770
C          5.64921       12.15386      -22.30313
N          7.00528       12.14574      -22.60563
C          7.86261       13.22169      -22.04777
C          7.18582       14.57454      -21.98916
O          7.41260       15.45954      -22.82017
C          6.31230       14.83912      -20.78495
C          7.62036       11.04940      -23.21876
C          8.90101       10.86171      -23.55856
H          9.98663       -1.79629       -4.34348
H          9.64880       -0.65435       -2.13538
H         10.64224        3.49308       -3.59580
H         11.54557        1.34228       -7.76046
H         10.21983        0.28564       -7.30657
H         12.33197       -1.50534       -4.76155
H         11.42862       -2.07714       -6.18498
H         10.40666        3.13009       -7.54728
H          9.01705        3.98838       -4.98973
H          9.86867        4.85891       -8.65484
H          7.24564        8.06526       -7.64357
H          5.22825        7.86696       -2.97820
H          8.69030        5.41866       -3.60345
H          5.53516        9.41140       -5.29305
H          4.85563        6.97161       -7.04447
H          3.55606        7.40512       -8.95945
H          1.23122        8.09070      -12.41764
H          3.85047        7.06930      -11.22805
H          3.62029        8.04744      -12.67148
H          2.68737        5.29207      -12.30266
H          3.98193        5.77354      -13.15056
H          0.75230        5.90219      -11.50514
H         -0.06543        7.15853      -10.61016
H          2.29211        5.63044       -9.75806
H          0.77129        5.54139       -9.16355
H          0.16675       10.10944      -12.73494
H         -0.99207       12.29260      -12.10900
H          0.22855       14.20955      -11.00810
H          1.71839       13.43367       -9.23549
H          3.25758       12.30583       -7.78772
H          4.55646       10.79402       -6.45656
H         -0.13838       12.64645      -14.27693
H          2.49153       13.51484      -12.92715
H          0.45882       15.22322      -15.29427
H          3.42858       14.10257      -18.15194
H          6.91429       10.77677      -16.58528
H          4.16222       12.12109      -13.56638
H          5.18556       11.33842      -18.80487
H          5.82252       14.29654      -18.31446
H          2.95586       13.04696      -20.43901
H          4.82685       10.91033      -23.94888
H          8.74579       13.37923      -22.67706
H          8.23423       12.94439      -21.05373
H          5.52756       15.55478      -21.05512
H          6.95839       15.29923      -20.02740
H          6.93816       10.22417      -23.41850
H          9.67133       11.60578      -23.40164
H          9.21450        9.93167      -24.02154
