150

C        -11.69497        3.91729       13.27727
C        -12.29267        4.28934       12.07215
C        -11.59219        4.06173       10.89465
C        -10.31703        3.45087       10.90688
C         -9.72053        3.09656       12.10553
C        -10.41614        3.33700       13.29476
C         -9.87114        3.25781        9.54346
C        -10.84896        3.76428        8.66773
C        -12.02793        4.35488        9.44684
C        -12.10494        5.89977        9.26084
C        -12.31735        6.43271        7.84508
C        -13.35552        3.63113        9.10280
C        -13.37354        2.12910        9.41569
C        -10.71687        3.63148        7.29387
C         -9.58639        3.00178        6.76845
C         -8.60069        2.51149        7.64690
C         -8.74367        2.63055        9.03866
C         -9.53722        2.88587        5.30660
C         -8.92748        1.89389        4.64695
C         -9.10754        1.78873        3.18073
N         -9.77038        2.66697        2.46509
C         -9.64019        2.20797        1.20125
C         -8.84667        1.01058        1.18022
C         -8.71739        0.55295       -0.22523
O         -8.11700       -0.41035       -0.66126
C         -9.50318        1.56974       -0.96943
C        -10.02675        2.52968       -0.02898
N        -10.75334        3.47327       -0.67804
C        -10.66617        3.10072       -1.92392
C         -9.87659        1.88283       -2.20626
C         -8.50534        0.64145        2.41270
C         -7.75895       -0.50913        2.83391
C         -7.89245       -1.12764        4.01659
C         -7.17059       -2.31556        4.42743
C         -6.36498       -2.23621        5.51898
C         -5.71415       -3.43360        6.01534
C         -4.87019       -3.62782        7.06163
C         -4.25030       -2.62473        8.01706
C         -4.69025       -2.88883        9.48169
N         -4.16251       -1.91356       10.44014
C         -2.70830       -2.59224        7.79002
N         -1.96188       -1.64965        8.62761
C         -4.53776       -5.05391        7.01146
C         -3.74242       -5.80435        7.78923
C         -3.38206       -7.23698        7.43360
C         -4.19309       -7.80174        6.27172
C         -5.04646       -7.06806        5.53430
C         -5.19829       -5.67734        5.86821
C         -5.92095       -4.70903        5.28885
C         -6.78578       -4.75026        4.13590
C         -7.36959       -3.60508        3.73675
C         -1.89381       -7.29162        7.16413
C         -1.31021       -7.03339        5.98147
C          0.16164       -7.06188        5.85888
N          0.97429       -7.78057        6.59195
C          2.19500       -7.49751        6.06834
C          2.07339       -6.56370        4.97783
C          3.42707       -6.23590        4.46433
O          3.75246       -5.47901        3.57790
C          4.29608       -7.07556        5.32294
C          3.47464       -7.80068        6.25949
N          4.25396       -8.56750        7.06426
C          5.45647       -8.31647        6.62522
C          5.57892       -7.35830        5.50549
C          0.80281       -6.25189        4.77928
C          0.19350       -5.31794        3.88851
C          0.30902       -5.36795        2.55273
C         -0.29334       -4.36492        1.66254
C          0.32223       -4.09520        0.42756
C         -0.20085       -3.09615       -0.38704
C         -1.37207       -2.41555        0.00072
C         -2.01118       -2.69648        1.19531
C         -1.46994       -3.67684        2.02177
C         -1.73455       -1.46564       -1.01623
C         -0.81110       -1.53687       -2.07644
C          0.30976       -2.55354       -1.74712
C          0.40836       -3.71873       -2.76554
C          0.76151       -3.34719       -4.20207
C          1.61718       -1.73177       -1.55995
C          2.89569       -2.50081       -1.25465
C         -0.93282       -0.67606       -3.16370
C         -1.98708        0.25030       -3.19341
C         -2.90969        0.28753       -2.12968
C         -2.78154       -0.56186       -1.03227
C         -2.12009        1.14206       -4.35423
C         -2.65532        2.36868       -4.30134
H        -12.22610        4.07272       14.21352
H        -13.28603        4.72592       12.06201
H         -8.74137        2.63063       12.13042
H         -9.96638        3.06032       14.24543
H        -11.18048        6.35800        9.63991
H        -12.91408        6.29921        9.88639
H        -11.53838        6.10876        7.15244
H        -12.26668        7.52722        7.85216
H        -13.29218        6.14371        7.44381
H        -13.58165        3.75459        8.03680
H        -14.18532        4.09551        9.65062
H        -12.49818        1.60924        9.01483
H        -14.26127        1.66296        8.97705
H        -13.41169        1.94782       10.49494
H        -11.50054        3.98824        6.63168
H         -7.71383        2.01461        7.26286
H         -7.99095        2.21439        9.70032
H        -10.11539        3.62650        4.75435
H         -8.35206        1.15488        5.17666
H        -11.14288        3.63543       -2.75997
H         -9.68284        1.41362       -3.14832
H         -7.07132       -0.92473        2.09529
H         -8.62974       -0.80981        4.74827
H         -6.21109       -1.30333        6.05069
H         -4.62321       -1.62415        7.75706
H         -4.38266       -3.88470        9.81148
H         -5.78413       -2.85554        9.54668
H         -3.14793       -1.84124       10.27087
H         -4.25603       -2.28144       11.38575
H         -2.51269       -2.34054        6.73987
H         -2.26285       -3.57482        7.96037
H         -0.98803       -1.63280        8.32327
H         -2.32523       -0.70704        8.47864
H         -3.25788       -5.39972        8.66982
H         -3.59956       -7.86526        8.30680
H         -4.05145       -8.85408        6.03996
H         -5.59958       -7.49693        4.70760
H         -6.97134       -5.68555        3.62214
H         -8.04761       -3.61241        2.88740
H         -1.26707       -7.49605        8.03171
H         -1.88862       -6.77335        5.10219
H          6.36847       -8.77472        7.03640
H          6.46367       -7.00885        5.01285
H         -0.37540       -4.53092        4.37716
H          0.89491       -6.14818        2.07112
H          1.20880       -4.64523        0.12777
H         -2.91102       -2.17003        1.49410
H         -1.98593       -3.89456        2.95331
H         -0.54013       -4.27301       -2.79127
H          1.16097       -4.43974       -2.42000
H         -0.05964       -2.81844       -4.69297
H          0.93762       -4.25547       -4.78901
H          1.66460       -2.73417       -4.25944
H          1.46987       -0.99989       -0.75277
H          1.81188       -1.13574       -2.46128
H          2.78021       -3.20907       -0.43417
H          3.67848       -1.79437       -0.95511
H          3.25752       -3.03808       -2.13551
H         -0.20043       -0.69258       -3.96442
H         -3.74170        0.98594       -2.14098
H         -3.48646       -0.49755       -0.21076
H         -1.74039        0.76488       -5.30071
H         -3.02504        2.80446       -3.37881
H         -2.72426        2.97961       -5.19514
