124

C          1.86905        5.12718       -6.22584
O          2.39991        3.99266       -5.69100
C          2.60152        4.19863       -4.33430
C          2.16320        5.49316       -4.06680
C          1.71562        6.06921       -5.25156
F          1.23603        7.26946       -5.40041
F          2.15391        6.08515       -2.90440
C          3.13827        3.18193       -3.48750
C          3.35561        3.44090       -2.19154
C          3.82779        2.56042       -1.11182
C          3.72953        1.16532       -0.97085
C          3.08302        0.23478       -1.94830
O          3.84152       -0.52926       -2.53703
C          1.60737        0.22022       -2.10110
C          0.85294        1.37494       -1.95387
S         -0.81259        1.16950       -2.15454
C         -0.59826       -0.51170       -2.22810
C          0.71108       -0.92809       -2.41642
C          1.11010       -2.33164       -2.72258
O          2.28362       -2.67997       -2.60854
C          0.14153       -3.43948       -3.11764
C          0.65398       -4.75226       -3.17388
C         -0.17635       -5.86103       -3.39167
C         -1.54717       -5.68667       -3.53302
C         -2.06749       -4.40011       -3.55548
C         -1.22029       -3.29128       -3.41084
C          4.34253        0.54597        0.14032
C          5.02245        1.29677        1.10939
C          5.07942        2.68533        1.00478
C          4.43456        3.29279       -0.07358
C          5.84789        3.51979        1.95458
C          6.63343        4.50559        1.43691
C          7.47444        5.35697        2.28160
C          8.29636        6.41282        1.88597
C          8.09069        7.07751        0.42201
C          6.93775        8.15567        0.43259
N          5.56102        7.67032        0.28593
C          9.31494        7.46454       -0.52546
N          9.13721        8.51933       -1.54099
C          8.99396        7.00431        3.25083
C         10.17832        8.20770        4.05715
C          9.92619        8.62754        5.97687
C          8.70625        7.46057        6.85224
C          7.85817        6.42172        6.21951
C          7.85080        6.09039        4.45190
C          7.26156        5.13882        3.73844
C          6.45356        4.07112        4.26741
C          5.79096        3.28978        3.40270
C          9.38807       10.13603        6.11097
C          8.12320       10.64465        5.92537
C          7.73615       12.08052        5.85451
C          6.85891       12.79120        4.98642
C          6.04573       12.32687        3.79896
O          4.82374       12.45959        3.89345
C          6.63205       12.03492        2.48352
C          6.02000       12.43859        1.29937
S          6.94148       12.11559       -0.10571
C          8.14990       11.38292        0.83102
C          7.80021       11.28964        2.16754
C          8.65610       10.62130        3.09767
O          9.62634       11.21658        3.55311
C          8.59884        9.12896        3.12389
C          8.41982        8.11270        4.66194
C          9.78136        6.66917        4.99521
C         10.99904        6.28136        3.73028
C         11.02414        7.26652        2.27345
C          9.90994        8.64889        2.00173
C          6.51753       14.12928        5.33130
C          6.96733       14.73796        6.51003
C          7.79448       14.02642        7.36353
C          8.19827       12.74231        6.99247
C          8.22728       14.48642        8.66339
O          8.49211       13.46520        9.53430
C          9.02064       13.96945       10.69469
C          9.01293       15.34727       10.55319
C          8.48467       15.67102        9.29467
F          8.33483       16.86141        8.78894
F          9.44059       16.19928       11.44100
C          9.47653       13.13016       11.74510
C          9.09157       11.84700       11.80582
H          1.66261        5.09928       -7.28448
H          3.32153        2.20511       -3.92416
H          3.17383        4.45580       -1.83972
H          1.17173        2.38015       -1.74922
H         -1.50586       -1.07976       -2.15402
H          1.72140       -4.93085       -3.04557
H          0.25051       -6.86026       -3.43391
H         -2.20355       -6.54510       -3.65221
H         -3.13625       -4.25021       -3.69560
H         -1.68637       -2.32980       -3.56333
H          4.32370       -0.53918        0.23915
H          5.52582        0.78359        1.92663
H          4.44452        4.38284       -0.12418
H          6.67032        4.66774        0.36900
H          7.66542        6.27998       -0.19657
H          7.04767        8.88087       -0.37248
H          6.95015        8.72774        1.35462
H          5.38384        7.41761       -0.68467
H          5.40082        6.85436        0.86820
H          9.60422        6.56142       -1.07309
H         10.22865        7.71722       -0.01067
H         10.05372        8.81467       -1.88755
H          8.73475        9.37020       -1.15175
H         10.98103        8.91600        3.75924
H         10.90997        8.49629        6.45428
H          8.78883        7.54175        7.93667
H          7.30116        5.69477        6.81194
H          6.40786        3.89221        5.33556
H          5.18426        2.46993        3.77635
H         10.21503       10.84091        6.20127
H          7.23708       10.03796        5.80390
H          5.08084       12.95948        1.17638
H          9.05357       11.02216        0.36136
H          7.49826        8.32039        5.21549
H          9.90950        5.94728        5.82915
H         11.67866        5.44354        3.84984
H         11.77539        7.05131        1.51404
H         10.20462        9.37333        1.23974
H          5.82451       14.69115        4.70079
H          6.61759       15.73495        6.76582
H          8.84832       12.19335        7.67540
H         10.15332       13.53870       12.48749
H          8.40773       11.41007       11.08070
H          9.44571       11.19430       12.59665
