100

C         -0.41964        3.71019       -0.52269
C          0.16537        2.76303        0.22440
C          0.50501        2.93888        1.60415
S          0.91498        4.48174        2.23034
C          1.00578        3.96770        3.87587
C          1.29872        4.95033        4.92664
S          0.96798        6.63385        4.66687
C          1.55657        7.11466        6.20726
C          1.75609        8.50711        6.44042
C          2.74326        8.94377        7.23756
C          3.02685       10.32513        7.43736
S          4.67357       10.77251        7.69254
C          4.33732       12.46453        7.86584
C          5.42273       13.41311        8.09728
S          6.83438       12.90655        8.95363
C          7.61601       14.43644        8.84444
C          8.97337       14.49787        9.29373
C          9.87059       15.38655        8.82764
C         11.24533       15.41169        9.24595
S         11.70020       14.82832       10.81522
C         13.34787       15.13620       10.57095
C         13.59181       15.71012        9.34521
C         12.36970       15.90080        8.57316
C         12.38033       16.51518        7.22457
O         11.38320       16.70804        6.53885
C         13.73259       16.86549        6.78312
C         14.12996       17.43682        5.58515
N         15.49913       17.55821        5.60429
C         16.31551       18.06379        4.51372
C         17.10605       19.30892        4.88307
C         15.98870       17.07432        6.79171
C         14.91720       16.65334        7.55372
C         14.93455       16.07622        8.88628
O         15.95423       15.90097        9.54776
C          6.71476       15.36956        8.35767
C          5.58178       14.73599        7.70661
C          4.76903       15.48948        6.74740
O          3.89529       14.96854        6.05684
C          5.23015       16.91252        6.46519
C          5.76685       17.62297        7.69835
C          6.85786       16.82827        8.38862
O          7.71842       17.40848        9.04538
C          2.97066       12.64623        7.78215
C          2.23915       11.45474        7.50134
C          0.81749       11.64897        7.39211
O         -0.04846       10.79804        7.24627
S          0.46969       13.37431        7.50105
C          2.12393       13.79914        7.95001
O          2.43485       14.88579        8.42477
C          1.69448        5.99197        7.00128
C          1.84764        4.80502        6.19546
C          2.51684        3.63462        6.76146
O          3.08885        2.80712        6.05314
C          2.63963        3.56186        8.27830
C          1.73837        4.52921        9.03508
C          1.81358        5.92904        8.45749
O          1.85927        6.91155        9.19106
C          0.76673        2.59775        3.93994
C          0.64184        1.98584        2.60498
C          0.60825        0.52173        2.39505
O          0.37393       -0.03178        1.32790
C          0.95381       -0.20776        3.60815
C          1.30109       -1.53653        3.75156
N          1.61256       -1.74918        5.07171
C          2.06542       -3.01356        5.62819
C          3.57438       -3.17990        5.55764
C          1.40546       -0.59611        5.78832
C          0.99617        0.38263        4.90431
C          0.67026        1.77901        5.16176
O          0.29910        2.19746        6.25403
H         -0.69381        3.49929       -1.55214
H         -0.66455        4.70015       -0.15168
H          0.32806        1.78894       -0.23219
H          1.15137        9.20562        5.86924
H          3.40260        8.23163        7.73284
H          9.29042       13.72171        9.98671
H          9.57935       16.11712        8.07796
H         14.07053       14.88795       11.33855
H         13.54715       17.75526        4.72761
H         15.65402       18.27922        3.66635
H         16.98901       17.25372        4.21798
H         16.43975       20.12818        5.17153
H         17.70947       19.63976        4.03192
H         17.78499       19.11903        5.72090
H         17.05061       17.06878        7.00766
H          6.01776       16.84493        5.70455
H          4.39545       17.48313        6.04639
H          4.96694       17.79492        8.42769
H          6.18324       18.59435        7.40822
H          2.41542        2.53720        8.59312
H          3.68528        3.77950        8.52280
H          2.02908        4.56341       10.09062
H          0.69107        4.20587        8.98703
H          1.38082       -2.32853        3.01655
H          1.56540       -3.81536        5.07394
H          1.72302       -3.06100        6.66757
H          3.93205       -3.13654        4.52345
H          3.86815       -4.14742        5.97770
H          4.08753       -2.39433        6.12227
H          1.59449       -0.55080        6.85360
