102

C         -0.92390       -1.32530        1.72622
S          0.43989       -2.11537        2.44061
C          0.48376       -3.41822        1.24875
C         -0.55980       -3.19241        0.39656
C         -1.28116       -2.06327        0.67021
O         -2.28285       -1.87265       -0.22646
C         -2.03732       -3.00716       -1.02162
N         -1.01953       -3.83196       -0.70425
C          1.44389       -4.47035        1.27576
C          2.68620       -4.28554        1.74909
C          3.67465       -5.38261        1.72078
N          3.40454       -6.66288        1.79998
C          4.63504       -7.24197        1.79929
C          5.66044       -6.23441        1.72080
C          6.99022       -6.88802        1.69807
O          8.08859       -6.38457        1.62599
C          6.63140       -8.32318        1.77829
C          5.19559       -8.44741        1.84238
N          4.84978       -9.75902        1.91340
C          6.00448      -10.36614        1.88859
C          7.21097       -9.51600        1.79733
C          5.12841       -5.02165        1.66285
C          5.76442       -3.74910        1.54587
C          5.56374       -2.90489        0.52210
C          6.25505       -1.62875        0.40369
C          6.96057       -1.37936       -0.73006
C          7.67935       -0.12524       -0.87449
C          8.43557        0.36235       -1.89450
C          8.68311       -0.26899       -3.25200
C          8.29097        0.62640       -4.45615
N          6.85845        0.94872       -4.50274
C         10.09725       -0.87936       -3.43532
N         11.20892        0.06571       -3.47019
C          8.89557        1.67391       -1.42180
C          9.72196        2.58785       -1.95592
C         10.10070        3.88050       -1.23873
C          9.30295        4.11795        0.03993
C          8.48233        3.20235        0.58352
C          8.31662        1.95139       -0.10720
C          7.60729        0.86403        0.22260
C          6.81773        0.58299        1.39577
C          6.18374       -0.60235        1.46847
C         11.59783        3.89641       -1.00224
C         12.23656        3.88868        0.17885
C         13.71575        3.83915        0.20818
N         14.50247        4.27755       -0.74410
C         15.74350        4.01506       -0.26578
C         15.66272        3.39835        1.03325
C         17.03765        3.08284        1.49916
O         17.40037        2.55318        2.52593
C         17.87153        3.58760        0.38516
C         17.01338        4.13292       -0.63471
N         17.76125        4.59254       -1.67289
C         18.98084        4.33903       -1.28402
C         19.14654        3.69050        0.03455
C         14.39788        3.27606        1.42036
C         13.80492        2.66328        2.56945
C         14.34913        2.65762        3.79693
C         13.71818        2.03473        4.89760
S         13.96135        2.51834        6.54385
C         12.88014        1.29561        7.20261
C         12.40567        0.57791        6.14187
C         12.86929        0.99626        4.92349
O         12.35376        0.24666        3.90967
C         11.55829       -0.60815        4.68831
N         11.54243       -0.46125        6.02603
C         12.67246        1.22879        8.60525
C         12.31785        0.08867        9.20983
H         -1.36175       -0.41365        2.10465
H         -2.71809       -3.11825       -1.85642
H          1.15342       -5.42779        0.84666
H          3.02634       -3.33489        2.13896
H          6.12621      -11.45903        1.93117
H          8.24037       -9.80975        1.75389
H          6.49782       -3.51140        2.31543
H          4.88557       -3.15880       -0.29087
H          7.03018       -2.11532       -1.52408
H          8.01397       -1.13897       -3.32289
H          8.53994        0.11110       -5.39131
H          8.85431        1.56260       -4.46648
H          6.31799        0.08931       -4.58489
H          6.58333        1.36845       -3.61378
H         10.10916       -1.43128       -4.38389
H         10.28598       -1.61882       -2.64824
H         11.36436        0.42453       -2.52628
H         12.06706       -0.42805       -3.71631
H         10.17681        2.43351       -2.92804
H          9.86046        4.70913       -1.91795
H          9.41885        5.08526        0.52144
H          7.93083        3.40231        1.49396
H          6.73834        1.31722        2.18731
H          5.57415       -0.82925        2.33864
H         12.19535        3.88905       -1.91562
H         11.71067        3.88620        1.12422
H         19.87585        4.57962       -1.87570
H         20.04819        3.39088        0.52809
H         12.84223        2.18832        2.39388
H         15.29763        3.15827        3.98363
H         11.00143       -1.33947        4.11593
H         12.82387        2.12428        9.20301
H         12.17615       -0.84012        8.66392
H         12.17100        0.05728       10.28429
