113

C         -5.09174       -0.98934       11.33767
C         -4.23571       -0.32106       10.57699
C         -2.77027       -0.73884       10.33788
S         -0.67257        0.70020        9.82375
C         -0.07769       -0.97414        8.68243
C          1.13820       -0.55475        8.19173
C          1.47458        0.64924        7.72053
C          2.79294        0.95021        7.13753
C          2.74156        2.27378        6.58620
C          3.70898        2.75755        5.73389
C          4.77195        1.91950        5.44325
C          4.86325        0.61735        6.00518
C          3.90196        0.06342        6.88122
C          4.13935       -1.37865        7.42576
S          3.70768       -1.81535        9.03625
C          3.78303       -3.49836        8.85537
C          3.12523       -4.43663        9.72561
C          2.40060       -4.03049       10.78918
C          1.63340       -4.86837       11.72719
C          2.31191       -6.05683       12.10351
C          1.81271       -6.94580       13.04586
C          0.57901       -6.65634       13.62171
C         -0.13998       -5.48570       13.23534
C          0.37435       -4.52121       12.31398
C         -0.48610       -3.24343       12.04358
C         -0.20957       -2.19212       11.21133
C         -1.13304       -0.91521       10.81002
S         -2.27988       -0.05748        8.63635
C         -2.86107        1.65448       10.06285
C         -2.30502        1.41660       11.39625
O         -1.88000        2.48339       12.17239
C         -0.84736        1.87404       12.91656
N         -0.64817        0.54890       12.86275
C         -1.58469        0.19166       11.92851
O          0.02328       -7.53273       14.53044
C         -0.10913       -7.06691       15.82062
C         -0.37971       -7.87502       16.84850
O         -0.43948       -7.44672       18.15635
C          0.62809       -7.79887       18.95403
C          1.89746       -7.48716       18.67799
O          2.96932       -7.90956       19.42244
C          4.22430       -7.87621       18.85140
C          4.55680       -8.19639       17.59225
O          3.66161       -8.68889       16.67790
C          3.66969       -8.18691       15.40127
C          2.73050       -8.54299       14.52183
O          2.62131       -8.04173       13.25432
C          4.83205       -3.62949        7.97461
C          4.98851       -2.44866        7.09056
C          6.04544       -2.45443        6.03803
C          6.60244       -3.85927        5.78413
C          5.61847       -4.63218        4.92529
O          5.50944       -5.85448        4.94486
C          6.94089       -4.60152        7.08697
C          5.72852       -4.81789        7.97882
O          5.73880        2.32134        4.55241
C          6.86756        2.83834        5.14150
C          7.62457        3.75746        4.54269
O          8.67308        4.36280        5.18877
C          8.55885        5.72194        5.35218
C          8.49614        6.27474        6.56462
O          8.20421        7.60107        6.78183
C          7.13338        7.85819        7.61636
C          5.89450        7.38047        7.43835
O          5.56848        6.65083        6.32585
C          4.59816        5.68514        6.36643
C          4.34265        4.97124        5.26630
O          3.43041        3.96117        5.13471
C         -0.89365       -2.16138        8.80863
O         -0.52104       -3.43429        8.49515
C         -1.61192       -4.13422        9.05307
N         -2.66994       -3.50758        9.63055
C         -2.25285       -2.21573        9.54906
H         -6.09739       -0.58131       11.45224
H         -4.79799       -1.90159       11.82104
H         -4.69886        0.51599       10.03946
H          1.82668       -0.92121        8.87954
H          0.73932        1.45918        7.64779
H          1.88538        2.93344        6.75262
H          5.73112        0.04635        5.70969
H          3.20894       -5.50165        9.49862
H          2.40646       -2.98947       11.07243
H          3.28845       -6.28719       11.67712
H         -1.12313       -5.35223       13.68665
H         -1.44864       -3.28273       12.56500
H          0.73863       -2.21203       10.70865
H         -3.25814        1.79549        9.07527
H         -0.23232        2.57175       13.47462
H          0.08294       -6.01200       15.95748
H         -0.52940       -8.94297       16.76008
H          0.31092       -8.35876       19.82227
H          2.16328       -6.88831       17.81740
H          4.95298       -7.56613       19.58925
H          5.56919       -8.13843       17.21670
H          4.43454       -7.45304       15.19079
H          1.97449       -9.28883       14.72457
H          6.85914       -1.79719        6.37552
H          5.63333       -2.03930        5.11265
H          7.51387       -3.74629        5.19016
H          5.04542       -4.03696        4.19211
H          7.68366       -4.01445        7.64477
H          7.38827       -5.57887        6.88330
H          6.07591       -4.99531        9.01007
H          5.15561       -5.70175        7.68432
H          7.04885        2.50976        6.15656
H          7.42216        4.14935        3.55584
H          8.42250        6.27035        4.43094
H          8.56294        5.69868        7.47809
H          7.42248        8.51675        8.42364
H          5.07201        7.58491        8.10759
H          4.11388        5.53509        7.31934
H          4.82492        5.17302        4.31834
H         -1.46895       -5.20592        9.00450
