120

C          5.78169       -0.31018        4.20432
S          6.19831        1.29812        3.83698
C          4.86183        1.49038        2.76445
C          4.12640        0.30964        2.67875
C          4.66616       -0.73799        3.51580
C          4.06200       -2.11728        3.59218
S          5.13629       -3.31897        2.72185
C          2.63723       -2.14472        3.00815
C          2.52896       -1.39094        1.67797
C          2.89255        0.08494        1.84219
C          4.70461        2.75592        2.12153
C          3.49615        3.23622        1.80231
C          3.36053        4.52107        1.09260
N          4.24264        5.04806        0.28273
C          3.61178        6.16045       -0.17564
C          2.28539        6.25390        0.37577
C          1.63668        7.49278       -0.11462
O          0.51883        7.90532        0.09611
C          2.71566        8.10466       -0.92686
C          3.86317        7.23171       -0.92106
N          4.87857        7.79239       -1.62478
C          4.36704        8.92806       -2.01372
C          2.97078        9.21034       -1.61538
C          2.06744        5.26214        1.23085
C          0.97887        5.02419        2.12213
C          1.13029        4.94207        3.45727
C          0.03627        4.69289        4.38925
C          0.30369        4.09310        5.58699
C         -0.77543        3.78091        6.50825
C         -0.80400        3.16641        7.73366
C          0.37075        2.63508        8.55617
C          0.87904        3.74996        9.51416
N          2.01730        3.37553       10.36092
C          0.06478        1.30668        9.31384
N          1.19594        0.66731       10.00226
C         -2.23910        3.08386        8.07167
C         -2.92803        2.50668        9.07203
C         -4.44915        2.40746        9.08580
C         -5.12957        3.27714        8.04309
C         -4.45473        3.90640        7.06618
C         -3.02803        3.74068        7.02627
C         -2.15314        4.15282        6.10365
C         -2.39327        4.87452        4.88360
C         -1.34442        5.13599        4.08846
C         -4.84701        0.96532        8.86691
C         -5.93547        0.37349        9.38304
C         -6.20484       -1.04273        9.04462
N         -5.74681       -1.63849        7.96690
C         -6.30659       -2.87210        8.02372
C         -7.11916       -2.99398        9.20228
C         -7.73909       -4.34442        9.22044
O         -8.47777       -4.83618       10.04393
C         -7.23121       -4.94132        7.96235
C         -6.37861       -3.98482        7.30136
N         -5.92738       -4.49698        6.12733
C         -6.47127       -5.68244        6.10154
C         -7.31993       -6.05945        7.25290
C         -7.10377       -1.87213        9.91458
C         -7.86302       -1.56279       11.08734
C         -7.51853       -0.72236       12.07816
C         -8.38188       -0.45045       13.19184
S         -9.44573       -1.66881       13.78046
C        -10.21396       -0.63579       14.90077
C         -9.62161        0.61834       14.89018
C         -8.50437        0.71091       13.95936
C         -7.73335        2.01345       13.79268
S         -5.92191        1.78087       13.89295
C         -8.09400        3.07484       14.85356
C         -9.59235        3.12477       15.14001
C        -10.07176        1.79432       15.71369
C        -11.31388       -1.17406       15.62933
C        -11.57920       -0.84136       16.89838
H          6.39082       -0.88021        4.89340
H          4.01272       -2.43770        4.63929
H          5.24230       -2.62648        1.57827
H          1.95539       -1.66649        3.72537
H          2.27883       -3.17393        2.88784
H          1.50494       -1.46467        1.29321
H          3.17796       -1.85101        0.92432
H          2.05162        0.59057        2.33209
H          3.01897        0.52919        0.84841
H          5.59526        3.34509        1.90675
H          2.57696        2.71898        2.03855
H          4.91536        9.67793       -2.60273
H          2.38080       10.08277       -1.80635
H          0.00237        4.93117        1.65239
H          2.11693        5.06066        3.90004
H          1.30985        3.78309        5.85152
H          1.19078        2.40587        7.86195
H          0.06571        4.08094       10.17092
H          1.18704        4.62256        8.92580
H          1.74752        2.51571       10.86441
H          2.78003        3.04475        9.77021
H         -0.37718        0.57741        8.62702
H         -0.64417        1.50302       10.11545
H          0.85561       -0.17700       10.46873
H          1.89649        0.36831        9.33394
H         -2.45616        2.00882        9.90328
H         -4.78715        2.74448       10.07318
H         -6.20847        3.37287        8.09603
H         -4.96286        4.51374        6.33071
H         -3.39137        5.20870        4.62973
H         -1.51373        5.71483        3.18357
H         -4.19729        0.38718        8.20725
H         -6.63905        0.91445       10.00008
H         -6.34009       -6.40038        5.27852
H         -7.85397       -6.97255        7.42213
H         -8.80445       -2.10935       11.14025
H         -6.56371       -0.21205       12.04237
H         -7.96554        2.41724       12.79923
H         -5.91643        1.22838       15.11535
H         -7.75919        4.06446       14.51735
H         -7.58144        2.87400       15.80504
H        -10.14029        3.36466       14.22093
H         -9.80498        3.92279       15.86116
H        -11.16569        1.82046       15.77759
H         -9.67990        1.67654       16.73129
H        -11.94530       -1.91456       15.14045
H        -10.96841       -0.14983       17.46775
H        -12.42306       -1.29032       17.41374
