118

C         -5.71343        3.83262       -1.05898
C         -4.69296        4.80276       -1.11916
O         -4.38080        5.56275       -0.02342
C         -5.35186        5.61547        1.02562
C         -3.86052        4.91851       -2.25495
C         -3.95498        3.82767       -3.16566
C         -4.81919        2.73679       -2.97378
C         -5.77830        2.80341       -1.98383
O         -4.67408        1.65740       -3.80605
C         -4.94633        0.40179       -3.16856
C         -2.95913        6.10336       -2.57317
C         -1.73292        5.93804       -3.27740
C         -0.91882        4.74588       -3.64776
O         -1.05638        3.63984       -3.15845
N          0.07404        5.17093       -4.50796
C          0.13194        6.53022       -4.56328
O          0.92536        7.26304       -5.12396
C         -1.03331        7.01377       -3.84369
C         -1.46181        8.31440       -3.80744
C         -2.62202        8.51976       -3.09161
C         -3.33574        7.48494       -2.43363
C         -4.41576        8.16368       -1.66107
O         -4.85618        7.87408       -0.57109
S         -4.81962        9.73864       -2.33146
C         -3.25181        9.83799       -3.05180
O         -2.75939       10.84905       -3.51746
C          1.01236        4.39041       -5.13367
C          0.72036        3.32895       -5.89838
C          1.73864        2.56727       -6.61421
C          1.53410        1.23386       -6.76748
C          2.55204        0.41409       -7.39882
C          2.59270       -0.92197       -7.64983
C          1.48984       -1.92680       -7.36490
C          0.54519       -2.08405       -8.58189
N          1.16368       -2.60445       -9.79759
C          1.95389       -3.26022       -6.73265
N          0.84649       -4.16731       -6.39466
C          3.90940       -1.14362       -8.26981
C          4.50819       -2.22926       -8.79054
C          5.91806       -2.18975       -9.37797
C          6.58126       -0.82300       -9.32537
C          5.96815        0.27196       -8.84857
C          4.63323        0.12921       -8.33493
C          3.79872        1.05756       -7.85248
C          3.93908        2.48807       -7.77903
C          2.94262        3.19530       -7.21440
C          5.93161       -2.74804      -10.77770
C          5.59766       -2.10101      -11.90655
C          5.55793       -2.70434      -13.24879
C          6.03870       -2.00390      -14.36458
C          6.71178       -0.69545      -14.52058
O          6.98157        0.04471      -13.59342
N          6.92815       -0.50588      -15.87557
C          6.47823       -1.57951      -16.60567
O          6.53081       -1.79586      -17.79606
C          5.96305       -2.54753      -15.65067
C          5.50322       -3.81677      -15.91406
C          5.03065       -4.51638      -14.82063
C          5.00232       -3.98131      -13.52247
C          4.31575       -4.90474      -12.60236
O          3.95599       -4.67637      -11.46554
S          3.97825       -6.45702      -13.36540
C          4.51859       -5.88164      -14.91169
O          4.49602       -6.52752      -15.94268
C          7.62512        0.50716      -16.49687
C          8.69767        1.11582      -15.98335
C          9.56018        2.05886      -16.71699
C         10.36125        1.78961      -17.84620
O         10.57916        0.58657      -18.46486
C          9.45974       -0.17304      -18.88588
C         11.23188        2.78308      -18.32289
C         11.34172        4.01803      -17.68437
C         10.58258        4.28597      -16.55145
C          9.68708        3.31843      -16.08873
O         10.81947        5.50283      -15.97336
C         10.15525        5.76655      -14.74310
H         -6.44496        3.81089       -0.25795
H         -4.99534        6.31885        1.78254
H         -5.46391        4.64022        1.51049
H         -6.31819        5.98161        0.65597
H         -3.31428        3.76742       -4.04138
H         -6.54752        2.04622       -1.87766
H         -4.53027       -0.39929       -3.78695
H         -6.02603        0.23395       -3.09321
H         -4.47781        0.33083       -2.17793
H         -0.93906        9.11289       -4.32639
H          2.02991        4.76972       -5.06493
H         -0.31399        3.02940       -6.05438
H          0.65210        0.75063       -6.36377
H          0.85688       -1.47719       -6.58435
H          0.11646       -1.10141       -8.81577
H         -0.30810       -2.72128       -8.32046
H          0.54418       -2.44278      -10.58753
H          1.26805       -3.61635       -9.71351
H          2.50330       -3.04142       -5.80837
H          2.62978       -3.81092       -7.38701
H          0.12107       -3.66766       -5.88452
H          1.19197       -4.89355       -5.76701
H          4.00098       -3.18587       -8.82861
H          6.53571       -2.85190       -8.75679
H          7.59819       -0.74668       -9.69836
H          6.46337        1.23475       -8.82882
H          4.80128        2.97221       -8.22133
H          3.00799        4.27995       -7.20723
H          6.20637       -3.81090      -10.81700
H          5.32986       -1.04453      -11.84972
H          5.51578       -4.23306      -16.91755
H          7.33826        0.67475      -17.52430
H          9.02156        0.90991      -14.96342
H          8.64188        0.44999      -19.26057
H          9.14692       -0.84092      -18.08199
H          9.77886       -0.81874      -19.71058
H         11.86951        2.57338      -19.17972
H         12.05223        4.75482      -18.05117
H          9.09460        3.50679      -15.19762
H         10.47020        6.75490      -14.39545
H         10.43707        5.03819      -13.97458
H          9.07004        5.79300      -14.88416
