88

C          0.95043       -1.51127       -4.41855
O          1.61014       -0.39686       -4.91367
C          2.70230       -0.92535       -5.44230
C          3.98828       -0.77880       -6.13234
C          4.08272       -2.33184       -5.99506
C          2.79016       -2.25139       -5.31425
C          1.67024       -2.68927       -4.65239
C          1.33034       -4.01638       -4.28389
C          0.21180       -4.38979       -3.64220
C         -0.09942       -5.74745       -3.26578
C         -1.25786       -6.09437       -2.65605
C         -1.23449       -7.53596       -2.42039
C          0.04084       -7.99733       -2.92289
C          0.70759       -6.95896       -3.42692
F          0.47526       -9.26422       -2.90469
C         -2.20995       -8.26974       -1.87033
C         -2.18296       -9.70709       -1.63747
C         -3.36525      -10.05966       -1.09015
C         -4.19305       -8.86405       -0.95344
C         -3.50219       -7.81382       -1.40439
F         -3.94532       -6.54997       -1.44502
C         -3.68422      -11.40884       -0.71605
C         -4.05483      -11.73592        0.52856
C         -4.28638      -13.08353        0.88533
N         -5.05681      -13.30660        2.00338
C         -5.09273      -14.65216        2.22432
C         -5.59927      -15.61877        3.11813
C         -5.10294      -16.82637        2.65287
N         -4.39085      -16.61456        1.49445
C         -4.37861      -15.27013        1.25401
C         -3.87116      -14.29905        0.36217
C         -5.19967      -18.15438        3.12366
C         -6.25450      -18.51803        3.86425
C         -6.46711      -19.85133        4.34991
C         -7.70450      -20.36234        4.54194
C         -7.54905      -21.72283        5.03589
C         -6.12425      -21.93792        5.18270
C         -5.48050      -20.83932        4.78045
F         -5.54499      -23.05113        5.64919
C         -8.52971      -22.60024        5.27012
C         -8.34665      -23.96232        5.73885
C         -9.55374      -24.56015        5.79428
C        -10.56641      -23.56940        5.40943
C         -9.95553      -22.42228        5.09842
F        -10.55938      -21.29587        4.69804
C         -9.77908      -25.89864        6.27205
C         -8.89769      -26.91318        6.20318
C         -9.26609      -28.19678        6.70319
O        -10.54018      -28.40222        7.29120
C        -10.57536      -29.68855        7.54470
C        -11.22905      -30.83697        8.18344
C         -9.91876      -31.60352        7.81812
C         -9.43663      -30.33013        7.28077
C         -8.55636      -29.43272        6.73055
C         -7.21329      -29.67769        6.30884
C         -6.74830      -30.85674        5.87856
H          0.00661       -1.29421       -3.93563
H          4.70490       -0.15351       -5.58961
H          3.89790       -0.34053       -7.13179
H          4.88142       -2.75904       -5.37874
H          4.05954       -2.93952       -6.90670
H          2.06029       -4.77696       -4.55528
H         -0.52995       -3.64238       -3.37050
H         -2.06523       -5.43209       -2.38359
H          1.68309       -7.00357       -3.88181
H         -1.35168      -10.36462       -1.84016
H         -5.19610       -8.84955       -0.56187
H         -3.58526      -12.16102       -1.49474
H         -4.13753      -10.96614        1.29308
H         -5.51194      -12.62830        2.60072
H         -6.20657      -15.45961        3.99797
H         -3.93482      -17.29627        0.90142
H         -3.25079      -14.45856       -0.50835
H         -4.42882      -18.87328        2.85698
H         -7.04401      -17.80293        4.08585
H         -8.64220      -19.86965        4.33659
H         -4.41325      -20.69600        4.78386
H         -7.40027      -24.40373        6.01368
H        -11.62909      -23.74878        5.38138
H        -10.76328      -26.05863        6.71061
H         -7.92190      -26.78868        5.74706
H        -12.15770      -31.13112        7.68428
H        -11.48404      -30.65499        9.23151
H         -9.97947      -32.39480        7.06240
H         -9.29509      -32.00596        8.62326
H         -6.51111      -28.84745        6.35386
H         -7.38489      -31.73537        5.78830
H         -5.70942      -30.97640        5.58644
