144

C         13.87850       -2.17665       13.54859
C         14.50687       -2.64784       12.44568
C         13.76389       -2.75919       11.19557
C         14.12061       -3.15375        9.93283
C         15.50852       -3.58143        9.40138
C         15.60907       -4.03085        7.90666
N         14.83131       -5.22167        7.54824
C         16.58697       -2.46633        9.62812
N         17.91856       -2.77625        9.08082
C         12.85182       -3.05919        9.17019
C         12.51808       -3.31750        7.89671
C         11.14914       -3.08051        7.29300
C         10.11254       -2.65659        8.31762
C         10.40823       -2.41926        9.60570
C         11.77281       -2.58748       10.03404
C         12.32101       -2.39666       11.23897
C         11.70530       -1.90678       12.44844
C         12.47070       -1.79130       13.54918
C         11.21380       -2.07793        6.15579
C         12.26509       -1.86815        5.34332
C         12.24776       -0.94177        4.26621
C         12.42045       -1.26966        2.83055
N         12.36076       -0.27244        1.99292
C         12.14794        0.79061        2.81308
C         12.09171        0.37564        4.19050
C         11.88351        1.56493        5.06731
S         11.87389        1.60997        6.72746
C         11.74878        2.66681        4.05448
C         11.95766        2.10032        2.73331
N         11.87915        3.05169        1.77241
C         11.61793        4.12268        2.46423
C         11.50487        3.97274        3.94834
C         11.21359        5.02618        4.89536
C         11.59823        6.28821        4.58534
C         11.33840        7.41836        5.46758
C         11.64107        8.75397        5.37222
C         12.42430        9.55008        4.30741
C         13.68868       10.30330        4.80807
N         13.41569       11.48817        5.61384
C         12.89553        8.64739        3.12739
N         13.67543        9.26500        2.05801
C         11.00960        9.32818        6.59095
C         10.82301       10.59014        7.01270
C         10.24201       10.93719        8.38211
C          9.68307        9.73529        9.13205
C          9.78079        8.47598        8.67797
C         10.44886        8.26002        7.42168
C         10.63154        7.12938        6.72856
C         10.20800        5.78514        7.03891
C         10.47140        4.80986        6.15076
C         11.23286       11.66196        9.28010
C         12.52856       11.91959        9.02580
C         13.42107       12.61721        9.89712
C         13.11052       13.20531       11.22794
N         14.06962       13.85243       11.82706
C         15.09309       13.73908       10.94860
C         14.70409       12.96964        9.78345
C         15.88124       12.88241        8.85544
S         16.08276       12.04704        7.44003
C         16.89623       13.71852        9.55841
C         16.35085       14.16242       10.80455
N         17.24008       14.94490       11.47765
C         18.25332       14.97737       10.65475
C         18.11295       14.22332        9.37759
C         19.05431       14.20897        8.27992
C         19.32079       15.38882        7.66375
C         20.31158       15.52156        6.59898
C         20.88074       16.59402        5.95171
C         20.75998       18.13357        6.17292
C         20.83746       18.97203        4.85257
N         20.69642       20.42856        4.95193
C         19.51031       18.61533        6.96785
N         19.52536       18.34110        8.40444
C         21.75951       15.95431        4.92152
C         22.53572       16.42569        3.92437
C         23.28978       15.54777        2.92982
C         23.21955       14.07179        3.26123
C         22.48291       13.57951        4.27144
C         21.70984       14.49729        5.07036
C         20.87299       14.24892        6.08496
C         20.51638       12.98759        6.69985
C         19.67784       12.98396        7.75479
C         22.76296       15.79868        1.53100
C         23.48038       16.26445        0.49685
H         14.40328       -2.08166       14.49601
H         15.54115       -2.95766       12.49848
H         15.81904       -4.45044       10.00054
H         16.64373       -4.28151        7.65254
H         15.33871       -3.19083        7.25286
H         14.98792       -5.97352        8.21259
H         15.10265       -5.54687        6.62289
H         16.72596       -2.28504       10.69710
H         16.24953       -1.52630        9.17788
H         18.30714       -3.60273        9.53316
H         18.56131       -2.00907        9.27776
H         13.22232       -3.71561        7.19314
H         10.80041       -4.03250        6.87015
H          9.08424       -2.56630        7.98109
H          9.64373       -2.13253       10.31630
H         10.65767       -1.63098       12.45281
H         12.03959       -1.40983       14.47223
H         10.30121       -1.50940        5.98396
H         13.18647       -2.43620        5.44537
H         12.57162       -2.31883        2.53425
H         11.47812        5.10927        1.99821
H         12.10590        6.45038        3.65693
H         11.72894       10.28929        3.88514
H         14.26661       10.68023        3.95632
H         14.35367        9.62194        5.35263
H         12.90933       12.17489        5.06146
H         14.31440       11.91683        5.85493
H         12.01424        8.21370        2.64649
H         13.53651        7.85159        3.52933
H         13.11076        9.96263        1.57804
H         13.90682        8.55334        1.36352
H         11.11859       11.43079        6.40104
H          9.39852       11.61964        8.21139
H          9.17413        9.92019       10.07452
H          9.36257        7.64183        9.23005
H          9.66572        5.57514        7.95287
H         10.10651        3.81260        6.36173
H         10.80029       11.98491       10.22440
H         12.96009       11.59278        8.08519
H         12.10535       13.08676       11.65541
H         19.19180       15.51978       10.86189
H         18.71787       16.23480        7.93637
H         21.64400       18.42085        6.76234
H         20.13404       18.58497        4.10793
H         21.84309       18.88806        4.45565
H         19.77226       20.69045        5.28526
H         20.77664       20.83441        4.01918
H         18.60219       18.22081        6.49471
H         19.42184       19.70261        6.93876
H         20.08983       17.51940        8.60450
H         18.57167       18.17412        8.72450
H         22.69075       17.46955        3.71967
H         24.34654       15.84270        2.98084
H         23.81532       13.39813        2.65206
H         22.46731       12.51868        4.48956
H         20.92752       12.06334        6.31197
H         19.39821       12.03789        8.21339
H         21.70626       15.58835        1.36982
H         24.53687       16.49571        0.58206
H         23.01314       16.42112       -0.47195
