90

C          5.41702       -4.31222       -1.31631
C          5.24122       -3.54367       -0.18169
C          3.94234       -3.17555        0.32940
N          3.90298       -2.33596        1.38516
C          5.05748       -1.99688        2.01462
C          6.27565       -2.45160        1.56941
N          6.37613       -3.19372        0.43564
C          7.49494       -2.24949        2.29309
N          8.47114       -2.11323        2.90612
C          4.92150       -1.15563        3.16831
N          4.85684       -0.46210        4.09311
C          2.74008       -3.69556       -0.22572
C          2.89201       -4.57971       -1.32215
C          4.25963       -4.85709       -1.89172
N          4.24647       -5.68031       -2.94731
S          2.68850       -6.20905       -3.09835
N          1.93977       -5.29436       -1.94353
C          1.43806       -3.48646        0.46175
N          1.39754       -3.39766        1.77626
C          0.09964       -3.16195        2.06572
C         -0.69764       -3.23510        0.87294
C         -2.11594       -2.93946        1.23867
O         -3.13218       -3.02226        0.58418
C         -1.99155       -2.49495        2.63779
C         -0.63713       -2.69462        3.07153
N         -0.49233       -2.21979        4.33600
C         -1.68029       -1.75008        4.60858
C         -2.71719       -1.89090        3.56490
C          0.08098       -3.34619       -0.20497
C         -0.28180       -3.14189       -1.58124
C         -1.43086       -2.55219       -1.95263
C         -1.82761       -2.22976       -3.28613
C         -2.90617       -2.79126       -3.86376
C         -3.02690       -2.24766       -5.19052
C         -4.20484       -2.52984       -6.10879
N         -5.18204       -2.76392       -6.87057
C         -2.12097       -1.31102       -5.44407
C         -1.24470       -1.35349       -4.30769
C         -0.05331       -0.77095       -4.27716
C          0.76662       -0.38296       -5.41648
C          1.90687        0.11140       -4.90017
C          1.81995        0.03182       -3.45491
C          0.66322       -0.47748       -3.05873
C          3.01111        0.29755       -2.54886
N          3.99928        0.51799       -1.79721
C          0.65331       -0.62616       -6.87005
N          1.07849        0.27647       -7.72639
C          0.85662       -0.29889       -8.92994
C          0.21488       -1.58027       -8.77629
C          0.09400       -2.20805      -10.12000
O         -0.43479       -3.25176      -10.42954
C          0.81282       -1.24085      -10.98906
C          1.22001       -0.11257      -10.19431
N          1.96768        0.74253      -10.93839
C          1.99882        0.15687      -12.10348
C          1.26510       -1.12240      -12.23113
C          0.08565       -1.89882       -7.48912
C         -0.19185       -3.18143       -6.88058
C         -1.21315       -4.03002       -7.15456
C         -1.40969       -5.36569       -6.50763
C         -2.67505       -5.95762       -6.14840
C         -2.73140       -7.23746       -5.47677
N         -3.87437       -7.79917       -5.06137
C         -5.03493       -7.15597       -5.32416
C         -5.04238       -5.96699       -6.01060
N         -3.87067       -5.35770       -6.40709
C         -6.30800       -5.33404       -6.30215
N         -7.38121       -4.92606       -6.46347
C         -6.22489       -7.77242       -4.81065
N         -7.19450       -8.24654       -4.38405
C         -1.61952       -8.00938       -5.20616
C         -0.37847       -7.52425       -5.64249
C         -0.25518       -6.18386       -6.29515
N          1.01830       -5.91544       -6.64171
S          1.90442       -7.28583       -6.36806
N          0.78354       -8.18604       -5.54334
H          6.40483       -4.54384       -1.70230
H         -1.94322       -1.25009        5.55274
H         -3.72660       -1.53108        3.55468
H          0.43826       -3.40102       -2.34894
H         -2.17457       -2.22245       -1.23894
H         -3.59510       -3.48948       -3.41300
H         -2.08347       -0.66199       -6.30361
H          2.77661        0.43932       -5.45198
H          0.35442       -0.61707       -2.03851
H          2.55097        0.54603      -12.97248
H          1.21137       -1.77977      -13.07520
H          0.53879       -3.44690       -6.11697
H         -1.98074       -3.75736       -7.87847
H         -1.70561       -8.97763       -4.72462
