104

C         -6.30690       -7.38730        0.26183
C         -6.28807       -7.82600       -1.04773
C         -5.31828       -7.37547       -2.01702
N         -5.36229       -7.96485       -3.23998
C         -6.22339       -8.99630       -3.47161
C         -7.15846       -9.36615       -2.53658
N         -7.21757       -8.75477       -1.32798
C         -8.09487      -10.43241       -2.74882
N         -8.84724      -11.29771       -2.93559
C         -5.99944       -9.75174       -4.67067
N         -5.81523      -10.41922       -5.60302
C         -4.31198       -6.40224       -1.68549
C         -4.20224       -6.09142       -0.30005
C         -5.23852       -6.57645        0.67453
N         -5.03363       -6.16886        1.93414
S         -3.60169       -5.33914        1.93266
N         -3.23198       -5.40391        0.32302
C         -3.36236       -5.78466       -2.65988
S         -2.67403       -6.86825       -3.84407
C         -1.85909       -5.63819       -4.66264
C         -1.96574       -4.44758       -3.99675
C         -2.80657       -4.49908       -2.82146
N         -2.94588       -3.34297       -2.05204
C         -4.23158       -2.98456       -1.43256
C         -4.75547       -1.64513       -1.93658
C         -1.81471       -2.53016       -1.78960
C         -1.42734       -1.49993       -2.58919
C         -0.10208       -0.91351       -2.44402
C          0.55928        0.04941       -3.14932
C          0.08839        1.09847       -4.15667
C          0.72344        1.01857       -5.56944
N          0.65261       -0.30218       -6.19317
C         -1.45496        1.21308       -4.28316
N         -1.90490        2.43149       -4.96789
C          1.95968       -0.09999       -2.71097
C          3.11944        0.26121       -3.28703
C          4.46150       -0.28108       -2.80599
C          4.40578       -0.86149       -1.39583
C          3.24349       -1.20884       -0.80846
C          2.02945       -0.98528       -1.55208
C          0.79617       -1.48703       -1.40850
C          0.27669       -2.42976       -0.45037
C         -0.96484       -2.91373       -0.64502
C          5.54265        0.75838       -2.96957
C          6.28631        0.88163       -4.09061
C          7.32242        1.86310       -4.20534
S          8.57482        1.75399       -2.99384
C          9.36148        3.13557       -3.55618
C          8.73497        3.65699       -4.65912
C          7.62709        2.86515       -5.14996
N          6.99067        3.20818       -6.35300
C          5.74995        2.53067       -6.79798
C          5.92439        1.76487       -8.11044
C          7.58715        4.02326       -7.40836
C          6.81987        4.95179       -8.20707
C          7.39403        5.70538       -9.29732
N          6.65016        6.45904      -10.12580
C          5.31207        6.48996       -9.93127
C          4.74290        5.84887       -8.85656
N          5.49175        5.11347       -7.98738
C          3.33152        5.83911       -8.62234
N          2.18325        5.82891       -8.45439
C          4.54026        7.11848      -10.95939
N          3.89851        7.57937      -11.80931
C          8.73876        5.67618       -9.61283
C          9.53557        4.76543       -8.90485
C          8.96398        3.90499       -7.81891
N          9.87513        3.02717       -7.35896
S         11.30453        3.32536       -8.13202
N         10.84013        4.55813       -9.13492
H         -7.05187       -7.73383        0.97024
H         -1.30493       -5.83799       -5.56954
H         -1.46119       -3.55941       -4.35470
H         -4.11517       -2.92418       -0.34426
H         -5.00440       -3.73063       -1.63919
H         -4.08086       -0.82201       -1.68086
H         -5.72440       -1.42595       -1.47625
H         -4.88468       -1.65703       -3.02311
H         -2.02492       -1.25882       -3.45654
H          0.41751        2.05939       -3.72950
H          1.76729        1.33774       -5.53705
H          0.24686        1.74350       -6.23912
H          1.17239       -0.96966       -5.62440
H          1.11753       -0.26206       -7.09850
H         -1.92115        1.21091       -3.29170
H         -1.84519        0.36007       -4.84735
H         -1.69488        3.24831       -4.39720
H         -2.91914        2.40052       -5.06710
H          3.14955        0.83264       -4.20086
H          4.71643       -1.12698       -3.46249
H          5.34275       -1.05671       -0.88130
H          3.20490       -1.65340        0.17917
H          0.87624       -2.73508        0.39791
H         -1.37433       -3.63119        0.05505
H          5.70134        1.42613       -2.12486
H          6.11579        0.21899       -4.93465
H         10.24858        3.50291       -3.06045
H          9.11361        4.55020       -5.13526
H          4.91253        3.23076       -6.86547
H          5.38169        1.82059       -6.06616
H          6.91839        1.31367       -8.19407
H          5.77457        2.41991       -8.97570
H          5.17986        0.96667       -8.18611
H          9.15200        6.27303      -10.41832
