100

C         -4.73513       -0.94801        2.54018
C         -3.95256       -1.03728        3.68342
C         -3.11335       -2.17450        3.97562
N         -2.38636       -2.16245        5.11763
C         -2.47123       -1.08953        5.94804
C         -3.27651       -0.01614        5.65032
N         -4.02370        0.01531        4.51414
C         -3.38865        1.12582        6.50275
N         -3.46753        2.04762        7.21132
C         -1.68422       -1.16729        7.14568
N         -1.06128       -1.22196        8.12032
C         -3.02685       -3.28438        3.09595
C         -3.82364       -3.22474        1.90923
C         -4.69282       -2.02962        1.64114
N         -5.38679       -2.11355        0.49756
S         -4.99740       -3.57124       -0.18757
N         -3.90898       -4.14448        0.92789
C         -2.17061       -4.46354        3.34436
N         -1.60747       -5.21338        2.33635
C         -0.84221       -6.26377        2.81808
C         -0.88083       -6.17090        4.21032
C         -1.72000       -5.04456        4.51517
C         -0.23691       -7.03800        5.21092
O          0.79561       -7.67347        5.00232
C         -0.85282       -7.11664        6.58241
C         -0.25094       -7.12443        1.82168
C          0.93693       -7.73359        2.08173
C          1.64021       -8.47277        1.04866
C          2.81310       -9.16700        1.07060
C          3.66560       -9.58005        2.26700
C          3.24549      -10.98617        2.79760
N          3.41667      -12.08154        1.83440
C          5.20720       -9.56401        2.09130
N          5.75441       -8.28198        1.63814
C          3.10383       -9.40252       -0.34877
C          4.21953       -9.78286       -0.98806
C          4.33829       -9.79486       -2.49813
C          3.02700       -9.54596       -3.22134
C          1.90088       -9.17330       -2.58936
C          1.96426       -8.99407       -1.16512
C          1.08888       -8.44096       -0.31980
C         -0.21940       -7.89380       -0.55728
C         -0.85780       -7.30618        0.47137
C          4.93969      -11.10089       -2.92934
C          6.10535      -11.19639       -3.58681
C          6.64876      -12.45676       -3.91770
N          7.84685      -12.49122       -4.57337
C          8.29267      -13.78958       -4.76870
C          7.33993      -14.61378       -4.15846
C          6.28209      -13.76368       -3.70404
C          7.39309      -16.06402       -3.93773
O          8.45791      -16.66956       -3.80616
C          6.07588      -16.79010       -3.76446
C          9.57994      -14.03399       -5.46201
C          9.88286      -15.17178       -6.24970
C         11.19799      -15.37354       -6.81222
N         11.52721      -16.50452       -7.45350
C         10.58272      -17.47655       -7.53629
C          9.30224      -17.27223       -7.07780
N          8.93401      -16.10434       -6.48795
C          8.28603      -18.27476       -7.14620
N          7.46473      -19.09820       -7.21137
C         11.02386      -18.72682       -8.07848
N         11.37294      -19.75178       -8.49806
C         12.21545      -14.43621       -6.72266
C         11.94242      -13.26006       -6.00477
C         10.61251      -13.04698       -5.35269
N         10.54844      -11.86145       -4.71278
S         12.02208      -11.12474       -4.88853
N         12.80069      -12.24637       -5.82495
H         -5.35666       -0.08108        2.34091
H         -1.75880       -5.01601        1.35547
H         -1.95691       -4.69109        5.51115
H         -1.92839       -7.29103        6.50450
H         -0.64481       -6.19955        7.13743
H         -0.41055       -7.96304        7.11828
H          1.48871       -7.58255        2.99560
H          3.45306       -8.87682        3.08480
H          2.20017      -10.96603        3.12690
H          3.84531      -11.23257        3.68352
H          2.86460      -11.87317        1.00085
H          3.01505      -12.93412        2.22435
H          5.52582      -10.36562        1.41880
H          5.68716       -9.80530        3.04667
H          5.22292       -7.94830        0.83402
H          6.70667       -8.43217        1.30724
H          5.12997      -10.03425       -0.46878
H          5.01463       -8.97011       -2.76466
H          3.02594       -9.64876       -4.30193
H          0.97989       -8.98323       -3.12504
H         -0.68164       -7.99266       -1.53147
H         -1.86593       -6.93629        0.31000
H          4.38260      -11.98830       -2.63878
H          6.65434      -10.29203       -3.84296
H          8.39684      -11.67674       -4.81837
H          5.38597      -14.07674       -3.18335
H          5.68672      -16.61812       -2.75673
H          6.22465      -17.86323       -3.91203
H          5.34793      -16.44631       -4.50576
H         13.18660      -14.60067       -7.17646
