96

C          8.53484        1.29026        3.07551
C          8.08405        0.84792        4.31250
C          7.68815       -0.51578        4.56069
N          7.21220       -0.85041        5.78212
C          7.10995        0.12595        6.72931
C          7.52653        1.41577        6.48555
N          8.02498        1.78084        5.27501
C          7.45118        2.45706        7.46713
N          7.38809        3.28960        8.27434
C          6.49239       -0.26013        7.96307
N          5.97159       -0.54190        8.96199
C          7.77463       -1.49872        3.55040
C          8.15029       -1.06712        2.24819
C          8.53912        0.36075        2.01718
N          8.87813        0.62425        0.74831
S          8.68592       -0.79114       -0.09674
N          8.20839       -1.80553        1.12697
C          7.60095       -2.93197        3.78547
C          8.67953       -3.69713        4.07852
C          8.26007       -5.03765        4.42010
C          9.14078       -6.08066        4.80273
N          9.87839       -6.91751        5.11105
C          6.91810       -5.11539        4.35440
C          6.41482       -3.80925        3.90452
C          5.12047       -3.50520        3.67604
C          3.93399       -4.36299        3.88556
C          2.85501       -3.56247        3.74477
C          3.27933       -2.23345        3.36860
C          4.61517       -2.20032        3.26260
C          2.39667       -1.16536        3.09300
N          1.68368       -0.27761        2.87563
C          3.79712       -5.79062        4.01058
C          3.09622       -6.39566        4.98081
C          2.98569       -7.80498        4.99882
N          2.80298       -8.40853        6.22289
C          2.78355       -9.75963        6.02379
C          2.68463      -10.98844        6.71366
C          2.75664      -11.95781        5.72494
N          2.89310      -11.35201        4.49731
C          2.91279      -10.00235        4.69807
C          3.02671       -8.77546        4.00900
C          2.72706      -13.36885        5.73949
C          2.14021      -14.02527        6.74949
C          2.09688      -15.45975        6.82974
C          0.91255      -16.11381        6.84769
C          1.13724      -17.54077        6.85589
C          0.11671      -18.51907        6.88529
N         -0.71222      -19.33122        6.89522
C          2.45680      -17.78394        6.84344
C          3.15968      -16.49706        6.80723
C          4.50077      -16.32635        6.76571
C          5.54898      -17.35211        6.56452
C          6.73518      -16.70833        6.58208
C          6.52573      -15.29573        6.80126
C          5.21295      -15.05585        6.92535
C          7.56662      -14.34398        6.90495
N          8.43151      -13.57522        6.98571
C          5.49627      -18.77552        6.36703
C          4.85640      -19.38026        5.35370
C          4.72741      -20.84166        5.19093
C          4.58634      -21.44184        3.91951
C          4.48274      -22.87005        3.76810
N          4.37162      -23.43834        2.55742
C          4.35128      -22.62205        1.47066
C          4.43836      -21.25426        1.59714
N          4.55713      -20.65816        2.81565
C          4.41687      -20.37014        0.46950
N          4.39786      -19.66815       -0.45466
C          4.24418      -23.27888        0.20203
N          4.16318      -23.79538       -0.83418
C          4.49173      -23.74598        4.84528
C          4.57960      -23.18955        6.13476
C          4.68779      -21.70876        6.32606
N          4.71533      -21.37160        7.62859
S          4.66276      -22.77261        8.50826
N          4.57886      -23.88302        7.28149
H          8.84030        2.31906        2.91632
H          9.71030       -3.37094        4.11952
H          6.33391       -5.98422        4.60387
H          1.82002       -3.87492        3.77845
H          5.19056       -1.35838        2.92415
H          4.30305       -6.37294        3.24265
H          2.62691       -5.81360        5.77085
H          2.73090       -7.97586        7.13513
H          2.58983      -11.14505        7.77919
H          2.96201      -11.78556        3.58526
H          3.13636       -8.62128        2.94469
H          3.20965      -13.91770        4.93270
H          1.62084      -13.48841        7.54026
H         -0.06862      -15.66029        6.82460
H          2.89592      -18.76306        6.90769
H          7.71002      -17.15745        6.45516
H          4.78824      -14.09530        7.16205
H          6.03628      -19.34563        7.11983
H          4.37915      -18.77597        4.58218
H          4.41691      -24.81902        4.70808
