71

C          5.55283       -5.05515       -0.83599
C          4.73482       -4.71145        0.23316
C          3.29413       -4.72792        0.15401
N          2.56092       -4.35652        1.22445
C          3.22288       -3.97784        2.35540
C          4.59912       -3.97000        2.41940
N          5.36515       -4.33804        1.35705
C          5.32412       -3.56078        3.59034
N          5.89191       -3.22318        4.54377
C          2.40243       -3.58393        3.45520
N          1.75217       -3.25345        4.35852
C          2.62682       -5.09921       -1.02431
C          3.42719       -5.43527       -2.14947
C          4.92153       -5.41256       -2.04342
N          5.54341       -5.74530       -3.18229
S          4.35467       -6.05465       -4.29840
N          3.00067       -5.77931       -3.37653
C          1.18721       -5.09675       -1.18885
C          0.37150       -3.99374       -1.75869
N         -0.89714       -4.22992       -1.93596
C         -1.02608       -5.51183       -1.50698
C          0.23862       -6.02231       -1.02543
C          0.05355       -7.44573       -0.59820
S          1.13683       -8.44251        0.16819
C         -1.36403       -7.70912       -1.00655
C         -1.94232       -6.47353       -1.49762
N         -3.22163       -6.66520       -1.91869
C         -3.40019       -7.94207       -1.72595
C         -2.25575       -8.68501       -1.15218
C         -2.13268      -10.07328       -1.00277
C         -1.79294      -11.01349       -1.95376
C         -1.83364      -12.34975       -1.45268
C         -2.19739      -12.43130       -0.12130
S         -2.48983      -10.83265        0.48615
C         -2.34531      -13.53795        0.74473
C         -3.21477      -13.61643        1.94977
N         -3.10633      -14.68577        2.68310
C         -2.15128      -15.39371        2.02953
C         -1.73137      -14.72459        0.80958
C         -0.71187      -15.61361        0.14257
S         -0.22074      -15.63502       -1.44798
C         -0.42413      -16.63864        1.21121
C         -1.41735      -16.47764        2.24893
N         -1.26171      -17.40725        3.22132
C         -0.20111      -18.05088        2.82854
C          0.44485      -17.59789        1.55903
C          1.71577      -18.08925        1.02374
C          2.15460      -19.43146        1.12432
C          3.44482      -19.85425        0.63366
N          3.87066      -21.11985        0.76832
C          3.04781      -22.00709        1.38510
C          1.80715      -21.62898        1.84345
N          1.35435      -20.34795        1.71202
C          0.91853      -22.53993        2.50011
N          0.21353      -23.29193        3.03395
C          3.55872      -23.33797        1.53030
N          3.95858      -24.42002        1.66182
C          4.33181      -18.99409        0.00619
C          3.95397      -17.64351       -0.09312
C          2.64185      -17.16677        0.45465
N          2.52453      -15.83051        0.37689
S          3.83453      -15.26598       -0.46829
N          4.69006      -16.67364       -0.65228
H          6.63469       -5.03135       -0.75627
H          0.85801       -3.03912       -2.01011
H         -4.33040       -8.47872       -1.96777
H         -1.53703      -10.76590       -2.97835
H         -1.61583      -13.20702       -2.07431
H         -3.91704      -12.79975        2.17384
H          0.23102      -18.88530        3.39883
H          5.29217      -19.33426       -0.36597
