110

C         -0.69495       -8.71397       -1.07219
C         -1.80040       -9.48209       -1.35311
C         -3.15747       -9.02460       -1.14090
N         -4.12495       -9.96110       -1.26501
C         -3.79093      -11.26019       -1.51946
C         -2.50754      -11.62138       -1.83842
N         -1.49969      -10.72345       -1.76551
C         -2.13897      -12.95525       -2.21014
N         -1.86089      -14.03734       -2.52649
C         -4.78262      -12.24211       -1.18709
N         -5.51440      -13.06748       -0.82901
C         -3.48691       -7.67679       -0.74232
C         -2.33818       -6.91467       -0.33887
C         -0.93702       -7.44955       -0.51862
N          0.02754       -6.62441       -0.09085
S         -0.73340       -5.28137        0.49735
N         -2.31230       -5.72101        0.27921
C         -4.90629       -7.13219       -0.67466
C         -5.31758       -5.80917       -0.98456
C         -6.68454       -5.44236       -0.98296
C         -7.68897       -6.32810       -0.65829
C         -7.32519       -7.63825       -0.30561
C         -5.97255       -7.99441       -0.31388
N         -8.26137       -8.54252        0.04664
C         -9.54514       -8.11887        0.04887
C         -9.89479       -6.83115       -0.29626
N         -8.97361       -5.91567       -0.65948
C         -4.44883       -4.66179       -1.24867
C         -4.06414       -4.25532       -2.46605
C         -3.21332       -3.08846       -2.71370
C         -2.88200       -2.80428       -4.00328
C         -1.86800       -1.80359       -4.28580
C         -1.33481       -1.36204       -5.45760
C         -1.85799       -1.57740       -6.87302
C         -2.82002       -0.42195       -7.28047
N         -2.18416        0.89469       -7.38030
C         -0.76986       -1.82051       -7.94705
N         -1.26579       -2.10687       -9.30191
C         -0.15859       -0.58619       -5.03750
C          0.93837       -0.17290       -5.69019
C          2.08199        0.55273       -5.00451
C          1.84336        0.85036       -3.53524
C          0.76518        0.40905       -2.86700
C         -0.18405       -0.39334       -3.58978
C         -1.20386       -1.13483       -3.14676
C         -1.70418       -1.31516       -1.81372
C         -2.66683       -2.23412       -1.62418
C          2.42027        1.78481       -5.79729
C          1.85334        2.99820       -5.67114
C          2.20098        4.13547       -6.54166
C          2.13917        5.46996       -6.10348
C          2.47504        6.49883       -6.99756
C          2.86586        6.23593       -8.30663
C          2.90183        4.89818       -8.75501
C          2.54993        3.88576       -7.88014
N          3.26931        4.57143      -10.00863
C          3.61260        5.59865      -10.81427
C          3.57533        6.90607      -10.38498
N          3.19871        7.25000       -9.13189
C          1.67180        5.85026       -4.75986
C          2.46579        5.97444       -3.68086
C          1.99963        6.30594       -2.31446
C          2.80878        7.02063       -1.38814
C          2.35555        7.29853       -0.04410
N          3.11314        7.97765        0.83178
C          4.32486        8.42194        0.40642
C          4.76935        8.18144       -0.87111
N          4.02252        7.47558       -1.76647
C          6.02515        8.67719       -1.35510
N          7.03965        9.09727       -1.72410
C          5.08957        9.16908        1.37223
N          5.72395        9.76806        2.13561
C          1.11764        6.89663        0.43663
C          0.27739        6.19797       -0.44479
C          0.71651        5.87910       -1.84610
N         -0.21844        5.17668       -2.51217
S         -1.51969        4.99204       -1.50703
N         -0.95039        5.75160       -0.14921
H          0.31336       -9.09935       -1.18330
H         -6.97555       -4.41883       -1.22305
H         -5.77423       -9.01675       -0.00289
H        -10.28823       -8.85021        0.34441
H        -10.92518       -6.49507       -0.28496
H         -4.20059       -4.10731       -0.34673
H         -4.36633       -4.83913       -3.33307
H         -3.24540       -3.40422       -4.83012
H         -2.47749       -2.48568       -6.86028
H         -3.65885       -0.35944       -6.57634
H         -3.27297       -0.64752       -8.25248
H         -2.16120        1.31216       -6.44701
H         -2.76037        1.51652       -7.94504
H         -0.12972       -2.65324       -7.63508
H         -0.14815       -0.93550       -8.06600
H         -1.78332       -1.28668       -9.62606
H         -0.45416       -2.13634       -9.92340
H          1.10080       -0.37348       -6.73615
H          2.95720       -0.11070       -5.04726
H          2.60356        1.42526       -3.01548
H          0.62295        0.61859       -1.81483
H         -1.32912       -0.70697       -0.99986
H         -3.06305       -2.35263       -0.62175
H          3.17102        1.60760       -6.56484
H          1.08943        3.17094       -4.91608
H          2.42410        7.53641       -6.67534
H          2.54738        2.87229       -8.27499
H          3.92318        5.32809      -11.81698
H          3.85147        7.72326      -11.04108
H          0.60083        6.01732       -4.71054
H          3.54180        5.83271       -3.78763
H          0.80350        7.11478        1.45307
