102

C          1.69130      -14.32325       -6.42921
C          2.65318      -13.33161       -6.33022
C          2.83481      -12.52856       -5.14655
N          3.80062      -11.58061       -5.16221
C          4.55813      -11.41629       -6.28032
C          4.36553      -12.19572       -7.39501
N          3.41136      -13.16163       -7.42539
C          5.14583      -12.04945       -8.58762
N          5.78926      -11.91537       -9.54303
C          5.55852      -10.39287       -6.21243
N          6.37711       -9.56999       -6.17658
C          2.02315      -12.69523       -3.99278
C          1.02551      -13.72023       -4.06275
C          0.86678      -14.53824       -5.31103
N         -0.10765      -15.45585       -5.23978
S         -0.77212      -15.32180       -3.72866
N          0.15426      -14.09936       -3.10949
C          2.16993      -11.89946       -2.75799
C          1.20306      -11.57450       -1.86423
C          1.79684      -10.81854       -0.81178
C          3.10629      -10.66289       -1.02601
C          3.50995      -11.31518       -2.29197
C          3.71852       -9.95534        0.04926
C          2.76257       -9.69215        0.96163
C          1.40482      -10.21986        0.48702
C          2.91805       -8.97235        2.20557
C          2.64845       -9.62439        3.36438
C          2.56190       -8.88116        4.60339
C          2.18630       -9.26680        5.85109
C          1.94459      -10.64271        6.45098
C          0.85729      -11.45423        5.71035
N         -0.45698      -10.80996        5.69705
C          3.26837      -11.46900        6.54411
N          3.10346      -12.80490        7.13893
C          1.88047       -7.99389        6.51482
C          1.05842       -7.71407        7.53628
C          0.69818       -6.27778        7.90915
C          1.50862       -5.21418        7.17511
C          2.31560       -5.50407        6.13968
C          2.37708       -6.87624        5.71879
C          2.75917       -7.41484        4.55563
C          3.23714       -6.79040        3.35037
C          3.30459       -7.54406        2.23710
C          0.77034       -6.05294        9.38986
C          1.53473       -6.73691       10.25466
C          1.52888       -6.47482       11.65840
C          1.30261       -5.28204       12.24899
C          1.43945       -5.46971       13.64686
C          1.75951       -6.73548       13.92816
C          1.85580       -7.54439       12.69271
C          1.93803       -6.89939       15.32742
C          1.72091       -5.70617       15.92773
C          1.37648       -4.65089       14.87298
C          1.79417       -5.41249       17.36729
C          2.14635       -4.14598       17.90034
C          2.18320       -3.90630       19.31954
N          2.51985       -2.70930       19.82338
C          2.83698       -1.71674       18.94922
C          2.81856       -1.92195       17.59184
N          2.47411       -3.12857       17.06872
C          3.14966       -0.89898       16.64282
N          3.41961       -0.05511       15.89165
C          3.18612       -0.46270       19.53551
N          3.47430        0.56934       19.99284
C          1.87849       -4.87972       20.25826
C          1.52277       -6.15317       19.78030
C          1.47563       -6.43923       18.31142
N          1.10277       -7.70873       18.06471
S          0.86025       -8.45541       19.51906
N          1.19892       -7.20284       20.54835
H          1.57295      -14.91484       -7.33028
H          0.15541      -11.83164       -1.89521
H          4.24637      -12.10484       -2.11293
H          3.90828      -10.56425       -2.97761
H          4.76121       -9.68942        0.10705
H          0.68537       -9.40527        0.35183
H          0.99493      -10.97606        1.16358
H          2.34914      -10.66226        3.35686
H          1.60864      -10.50866        7.48918
H          0.73778      -12.43677        6.17748
H          1.15707      -11.64854        4.67970
H         -0.76463      -10.64925        6.65367
H         -1.13068      -11.45091        5.28053
H          4.00525      -10.92243        7.14633
H          3.70679      -11.61113        5.55027
H          2.64751      -12.74095        8.04790
H          4.02258      -13.21617        7.30930
H          0.53792       -8.50098        8.06992
H         -0.35256       -6.13391        7.62040
H          1.39525       -4.17814        7.48425
H          2.87361       -4.74143        5.61067
H          3.50100       -5.74004        3.34869
H          3.62473       -7.09358        1.30237
H          0.11652       -5.26404        9.75838
H          2.19863       -7.52726        9.91287
H          1.07554       -4.34696       11.76263
H          1.11744       -8.35303       12.68063
H          2.86222       -7.95067       12.55166
H          2.20462       -7.83885       15.78409
H          2.11487       -3.84843       14.81591
H          0.37155       -4.24127       15.01500
H          1.91101       -4.67478       21.32215
