112

C         -6.84832      -14.58391       15.53278
C         -6.75173      -13.31371       16.09002
C         -6.41834      -12.14309       15.31726
N         -6.35061      -10.94355       15.95120
C         -6.61335      -10.89290       17.28851
C         -6.93161      -12.02561       18.01183
N         -6.99636      -13.24219       17.40881
C         -7.20405      -12.00418       19.41475
N         -7.41855      -11.96474       20.56366
C         -6.53806       -9.59999       17.90053
N         -6.47929       -8.56157       18.42413
C         -6.18002      -12.24595       13.92957
C         -6.25651      -13.52706       13.31931
C         -6.60411      -14.71776       14.15151
N         -6.64786      -15.86615       13.46144
S         -6.28028      -15.48573       11.88946
N         -6.02321      -13.86124       12.03982
C         -5.86008      -11.05595       13.12567
N         -6.13879      -11.01721       11.86304
N         -5.81788       -9.87767       11.21838
C         -6.18419       -9.73335        9.86796
C         -6.39328       -8.44397        9.36371
C         -6.96749       -8.25303        8.10562
C         -7.31583       -9.35378        7.32134
C         -7.03584      -10.64363        7.77341
C         -6.49473      -10.82848        9.04961
C         -8.01997       -9.14282        6.06421
C         -7.36638       -8.88397        4.92733
C         -8.02841       -8.64736        3.65925
C         -8.87037       -9.59551        3.17627
C         -9.25194       -9.54121        1.78568
C         -9.86041      -10.47468        1.01361
C        -10.68862      -11.69725        1.36963
C         -9.84803      -12.98544        1.54528
N         -8.80217      -12.91541        2.56586
C        -11.64292      -11.50522        2.58843
N        -12.62686      -10.43038        2.40570
C         -9.41977      -10.10306       -0.33189
C         -9.12767      -10.88625       -1.37842
C         -8.36556      -10.35819       -2.59731
C         -8.14864       -8.84631       -2.59201
C         -8.40278       -8.08186       -1.51634
C         -8.86635       -8.75803       -0.34072
C         -8.71870       -8.44427        0.94814
C         -8.06089       -7.32541        1.56119
C         -7.71912       -7.44691        2.85687
C         -9.01144      -10.78231       -3.88566
C        -10.15250      -11.47860       -3.96154
C        -10.67802      -11.84293       -5.26932
N        -11.92978      -12.11134       -5.42266
N        -12.24509      -12.44789       -6.69615
C        -13.37786      -13.26646       -6.86643
C        -14.46564      -13.24007       -5.98598
C        -15.55736      -14.08285       -6.19010
C        -15.56907      -14.94770       -7.28591
C        -14.51275      -14.94434       -8.19655
C        -13.43062      -14.09596       -7.99241
C        -16.63945      -15.92022       -7.43515
C        -17.76305      -15.68758       -8.12786
C        -18.84098      -16.68476       -8.24298
C        -18.65784      -18.08730       -8.31457
C        -19.77186      -18.99341       -8.38814
N        -19.58802      -20.32596       -8.42198
C        -18.30843      -20.79179       -8.38241
C        -17.23301      -19.94322       -8.32499
N        -17.40446      -18.59912       -8.30345
C        -15.87135      -20.39466       -8.26962
N        -14.77561      -20.77123       -8.22291
C        -18.15810      -22.21775       -8.40574
N        -18.01556      -23.36272       -8.42492
C        -21.09140      -18.55860       -8.42559
C        -21.32211      -17.16916       -8.38281
C        -20.18088      -16.20375       -8.29294
N        -20.59334      -14.92394       -8.25632
S        -22.24960      -14.94362       -8.32228
N        -22.52476      -16.57789       -8.40960
H         -7.10027      -15.45192       16.13459
H         -5.39377      -10.19836       13.64177
H         -5.09882       -9.24383       11.55314
H         -6.17842       -7.57604        9.97977
H         -7.18477       -7.24442        7.76312
H         -7.27118      -11.51053        7.16070
H         -6.31887      -11.83891        9.41238
H         -9.10495       -9.17067        6.10690
H         -6.27816       -8.85058        4.90186
H         -9.06620      -10.50511        3.73399
H        -11.35926      -11.88741        0.51608
H         -9.38161      -13.24917        0.59116
H        -10.51377      -13.81764        1.80411
H         -8.19316      -12.12103        2.36066
H         -8.20231      -13.73598        2.48250
H        -11.08515      -11.32041        3.51021
H        -12.20875      -12.42999        2.75528
H        -12.14781       -9.57195        2.13225
H        -13.06735      -10.22773        3.30348
H         -9.33013      -11.95058       -1.33799
H         -7.36714      -10.81747       -2.57225
H         -7.72427       -8.38166       -3.47844
H         -8.21786       -7.01404       -1.50398
H         -7.82983       -6.44099        0.97940
H         -7.19569       -6.63751        3.35571
H         -8.49855      -10.47502       -4.79622
H        -10.74090      -11.79353       -3.11030
H         -9.94741      -11.89287       -6.09515
H        -11.48386      -12.74220       -7.30451
H        -14.45453      -12.57540       -5.12511
H        -16.37796      -14.07763       -5.47756
H        -14.50906      -15.61730       -9.04925
H        -12.60609      -14.11275       -8.69885
H        -16.43907      -16.86150       -6.93366
H        -17.93267      -14.71868       -8.59518
H        -21.91759      -19.25816       -8.48454
