118

C         -5.51242       -1.13314       -1.86573
C         -6.51650       -0.58063       -1.12105
C         -6.21767        0.76637       -0.71854
N         -7.10984        1.54291       -0.04023
C         -8.21099        0.84265        0.33181
C         -8.48747       -0.48198       -0.03186
C         -9.75709       -1.12237        0.46235
C         -9.54077       -1.91847        1.73874
N         -7.66464       -1.24270       -0.81197
C         -4.91003        1.15035       -0.99021
S         -4.15326       -0.10230       -1.94289
C         -4.18449        2.33693       -0.63194
C         -3.26162        2.86196       -1.47606
C         -2.88265        4.19107       -1.04989
C         -1.94824        5.00307       -1.74026
N         -1.18692        5.66181       -2.31442
C         -3.57408        4.52573        0.05092
C         -4.38423        3.36259        0.43700
C         -5.12956        3.25378        1.55951
C         -5.65795        4.31180        2.44369
C         -6.49172        3.70223        3.31753
C         -6.43278        2.27072        3.13597
C         -5.59373        1.99429        2.13091
C         -7.17624        1.35294        3.86014
N         -7.82204        0.57384        4.45401
C         -5.55508        5.73973        2.36723
C         -5.64881        6.54141        3.43455
C         -5.41517        7.97108        3.37261
C         -4.89436        8.52956        4.48327
C         -4.56555        9.93259        4.55556
C         -3.96322       10.69738        5.51187
C         -3.37482       10.34141        6.88298
C         -4.00378       11.11879        8.07505
N         -5.42291       10.84038        8.30459
C         -3.28967        8.82602        7.26855
N         -4.57168        8.13711        7.38462
C         -3.89598       12.04719        4.89435
C         -3.38713       13.22542        5.30251
C         -3.48828       14.49743        4.45052
C         -4.06126       14.28274        3.05999
C         -4.56037       13.11031        2.64826
C         -4.49736       12.00265        3.55683
C         -4.88557       10.74018        3.36051
C         -5.46942       10.12798        2.19726
C         -5.71770        8.80697        2.21018
C         -4.26688       15.57774        5.17423
C         -5.58656       15.83699        5.04778
C         -6.25251       16.91951        5.73366
C         -6.10726       17.04016        7.07064
C         -6.73083       18.24651        7.54181
C         -6.78630       18.55896        8.91893
N         -6.79687       18.72928       10.06821
C         -7.24505       18.92537        6.50162
C         -7.00950       18.13129        5.27760
C         -7.41000       18.45622        4.02141
C         -7.86180       19.77184        3.48184
C         -8.06701       19.59747        2.15644
C         -7.77324       18.23764        1.78265
C         -7.42501       17.54066        2.87460
C         -7.87487       17.73986        0.46307
N         -7.93096       17.33797       -0.62641
C         -8.11386       21.04838        4.10569
C         -7.91066       22.24356        3.51968
C         -8.19908       23.46308        4.19639
C         -9.11266       23.76215        5.19229
C         -9.06390       25.14073        5.60159
N         -9.85701       25.68514        6.56164
C        -10.69774       24.74402        7.07770
C        -10.76137       23.39158        6.69447
C        -11.75762       22.47390        7.35757
C        -11.08401       21.31710        8.08118
N         -9.97667       22.84760        5.72571
C         -8.12425       25.86248        4.91551
S         -7.30844       24.88701        3.76817
H         -5.49857       -2.09876       -2.34670
H         -8.88321        1.38698        0.99239
H        -10.14591       -1.77877       -0.32314
H        -10.51822       -0.35131        0.63252
H         -8.81559       -2.72473        1.58736
H        -10.48542       -2.36588        2.06386
H         -9.17151       -1.28323        2.55039
H         -2.91735        2.43793       -2.40967
H         -3.46193        5.45083        0.59008
H         -7.12309        4.17033        4.05892
H         -5.35865        1.00346        1.78249
H         -5.34854        6.16422        1.39346
H         -5.82072        6.12191        4.42694
H         -4.69201        7.88065        5.30482
H         -2.32340       10.66822        6.84134
H         -3.86967       12.19634        7.94874
H         -3.46013       10.85653        8.99295
H         -5.93546       11.04730        7.44500
H         -5.77996       11.48020        9.01297
H         -2.79215        8.73196        8.24101
H         -2.65102        8.30296        6.54627
H         -5.24111        8.70871        7.90595
H         -4.49515        7.20715        7.77841
H         -2.86308       13.31599        6.24551
H         -2.46545       14.87080        4.30046
H         -4.09077       15.13860        2.39250
H         -4.98735       12.99008        1.66094
H         -5.69550       10.72328        1.31637
H         -6.14838        8.32846        1.33756
H         -3.65380       16.20363        5.82228
H         -6.22068       15.18134        4.45805
H         -5.56424       16.36453        7.71704
H         -7.82105       19.82767        6.59652
H         -8.43221       20.34156        1.46013
H         -7.26515       16.47728        2.89537
H         -8.51133       21.00613        5.11199
H         -7.50953       22.30726        2.51296
H        -11.35920       25.12232        7.85231
H        -12.44511       22.08868        6.59553
H        -12.36360       23.03532        8.07746
H        -10.53574       20.67255        7.38585
H        -11.83492       20.70297        8.58870
H        -10.37616       21.68056        8.83373
H         -7.88437       26.90978        5.02946
