82

C         -1.82402        0.60840        3.00133
S         -2.47926        0.29457        1.45544
C         -2.92439       -1.33735        1.85164
C         -2.55100       -1.61972        3.16000
C         -1.92880       -0.48501        3.82400
C         -1.47768       -0.51830        5.15332
C         -0.86068        0.59197        5.79256
N         -0.35345        1.49572        6.31377
C         -1.68949       -1.75472        5.79585
C         -2.28941       -2.87132        5.14882
C         -2.72889       -2.85777        3.80683
C         -3.59712       -2.13920        0.83725
C         -3.42588       -2.04654       -0.55359
C         -4.24390       -2.99812       -1.21413
C         -4.95593       -3.70200       -0.31583
S         -4.82010       -3.30974        1.29089
C         -5.68516       -4.63301       -0.95038
C         -5.48983       -4.52764       -2.27818
N         -4.60165       -3.49920       -2.43617
C         -6.26370       -5.49230       -2.97083
C         -6.96948       -6.28629       -2.05942
S         -6.71075       -5.80939       -0.38308
C         -7.85076       -7.38637       -2.25967
C         -8.21142       -7.83057       -3.47216
C         -9.11654       -8.91936       -3.60254
S         -9.00141       -9.97950       -4.95718
C        -10.27452      -11.01704       -4.41496
C        -10.80565      -10.53310       -3.24831
C        -10.15412       -9.36703       -2.84745
C        -10.76116       -8.88877       -1.65790
C        -11.79113       -9.71203       -1.17868
C        -12.57042       -9.52500        0.03340
O        -13.23940      -10.37569        0.60659
O        -12.42317       -8.23848        0.46674
C        -13.06072       -7.93913        1.70769
S        -12.13141      -11.12316       -2.16408
C        -10.68866      -12.19549       -5.13365
C        -11.98275      -12.71944       -5.23023
C        -11.97913      -13.86675       -6.05967
C        -10.73391      -14.11732       -6.50395
S         -9.49332      -13.12838       -6.01509
C        -10.76112      -15.16522       -7.33966
C        -12.02091      -15.63135       -7.43400
N        -12.77031      -14.83177       -6.61801
C        -12.07676      -16.72485       -8.32983
C        -10.80789      -16.95403       -8.87138
S         -9.56836      -15.88215       -8.24523
C        -10.38421      -17.89188       -9.85067
C        -10.99861      -19.07475      -10.00773
C        -10.60016      -20.05064      -10.98204
S         -9.29518      -19.67680      -12.09036
C         -9.35302      -21.17825      -12.86844
C        -10.33538      -21.96558      -12.33872
C        -11.07712      -21.33498      -11.25366
C        -12.13546      -22.02395      -10.60729
C        -12.94351      -21.50836       -9.55515
N        -13.62309      -21.10998       -8.69877
C        -12.36267      -23.32765      -11.11664
C        -11.60904      -23.90809      -12.17862
C        -10.55926      -23.24703      -12.83891
H         -1.40134        1.58353        3.20748
H         -1.37843       -1.87534        6.83480
H         -2.41513       -3.79302        5.71953
H         -3.15284       -3.75052        3.36844
H         -2.75239       -1.35881       -1.04880
H         -4.25780       -3.16307       -3.32640
H         -6.29699       -5.60943       -4.04607
H         -8.22598       -7.87861       -1.36653
H         -7.80587       -7.39444       -4.38015
H        -10.46318       -7.98988       -1.13144
H        -13.26029       -6.86439        1.73576
H        -12.37647       -8.18975        2.52257
H        -14.01243       -8.46483        1.82950
H        -12.86458      -12.29571       -4.76970
H        -13.76766      -14.92265       -6.47639
H        -12.96899      -17.27935       -8.59189
H         -9.52678      -17.60156      -10.44962
H        -11.82291      -19.30397       -9.34425
H         -8.66386      -21.39437      -13.67258
H        -13.16047      -23.93115      -10.67845
H        -11.86173      -24.91966      -12.49764
H         -9.99784      -23.70092      -13.64570
