104

C         -2.04487        2.59638        3.99519
S         -2.87062        1.25040        4.64621
C         -3.29192        2.06467        6.11568
C         -2.84644        3.37626        6.05663
C         -2.13129        3.68359        4.82680
C         -1.59792        4.94823        4.53054
C         -0.90813        5.24211        3.31833
N         -0.34401        5.47884        2.32943
C         -1.82813        5.89832        5.54727
C         -2.51983        5.59384        6.76065
C         -3.05334        4.32153        7.07202
C         -4.07671        1.36521        7.12960
N         -4.93556        1.99849        7.90925
C         -5.50876        1.01244        8.66009
C         -4.95066       -0.25659        8.30508
C         -5.55708       -1.33350        9.11695
O         -5.34776       -2.52180        9.09679
C         -6.50691       -0.56950        9.94817
C         -6.41302        0.83276        9.61355
N         -7.28405        1.53916       10.38328
C         -7.84869        0.61361       11.10894
C         -7.40623       -0.77838       10.89878
C         -4.02509       -0.11906        7.37244
C         -3.22597       -1.15735        6.83502
C         -1.89008       -1.17066        6.89758
C         -1.06321       -2.22115        6.32786
C          0.27746       -2.07032        6.44660
C          1.17364       -2.98310        5.77779
C          2.52754       -2.98915        5.68737
C          3.57866       -2.14830        6.40664
C          4.01799       -0.89044        5.61317
N          2.98698        0.12928        5.38355
C          3.26185       -1.83430        7.90454
N          4.27375       -1.04813        8.63425
C          2.80561       -4.03291        4.68088
C          3.93602       -4.40393        4.06116
C          3.95538       -5.45556        2.95272
C          2.60063       -6.09456        2.66249
C          1.47388       -5.74216        3.30403
C          1.55970       -4.68232        4.27318
C          0.58927       -4.04970        4.93885
C         -0.83182       -4.25474        4.91457
C         -1.60344       -3.38162        5.58357
C          4.96130       -6.51294        3.29896
C          6.26207       -6.46008        2.96595
C          7.11109       -7.57771        3.41276
N          6.65399       -8.80508        3.47203
C          7.73408       -9.51876        3.84688
C          8.88564       -8.66467        3.99073
C         10.03925       -9.52505        4.38752
O         11.18643       -9.20612        4.60691
C          9.43169      -10.88420        4.45418
C          8.03794      -10.78179        4.11694
N          7.44299      -11.99998        4.16665
C          8.42427      -12.78203        4.51479
C          9.74649      -12.14802        4.71456
C          8.56412       -7.38938        3.76225
C          9.39376       -6.20956        3.79535
C          8.99459       -4.95679        4.11070
C          9.87387       -3.81159        4.07652
S         11.08840       -3.74496        2.81067
C         11.85410       -2.36947        3.45194
C         11.15877       -1.87311        4.51796
C          9.95122       -2.63070        4.83080
C          9.08596       -2.17761        5.85980
C          7.84754       -2.76757        6.19952
N          6.80398       -3.19906        6.49638
C          9.52942       -1.00433        6.53118
C         10.74376       -0.32909        6.22440
C         11.60469       -0.73124        5.18965
H         -1.56854        2.50936        3.02658
H         -1.46764        6.91904        5.40954
H         -2.65001        6.39473        7.49081
H         -3.57437        4.13733        8.00408
H         -8.62741        0.81316       11.86268
H         -7.72403       -1.67832       11.38888
H         -3.78736       -1.98563        6.41366
H         -1.36944       -0.33459        7.36483
H          0.69255       -1.20240        6.93855
H          4.46049       -2.78964        6.46010
H          4.43203       -1.18685        4.64351
H          4.84175       -0.39908        6.14367
H          2.42251       -0.17055        4.58507
H          3.44638        0.98533        5.06806
H          3.13291       -2.77967        8.44564
H          2.33324       -1.27866        8.00872
H          4.32759       -0.12105        8.21042
H          3.92410       -0.87987        9.57894
H          4.88170       -3.93581        4.30778
H          4.26089       -4.95146        2.02576
H          2.55385       -6.86355        1.89400
H          0.52164       -6.21277        3.08535
H         -1.26401       -5.08556        4.37296
H         -2.67617       -3.53305        5.56004
H          4.58820       -7.34940        3.89296
H          6.69088       -5.64865        2.39488
H          8.31986      -13.86744        4.66415
H         10.67130      -12.61408        4.99020
H         10.44455       -6.41158        3.57056
H          7.97123       -4.79995        4.43271
H         12.75872       -1.98665        2.99961
H          8.91629       -0.59133        7.33646
H         11.01587        0.54554        6.81787
H         12.52216       -0.20124        4.96488
