108

C         -2.95715       -1.41740        3.12345
O         -3.47528       -0.39929        3.52885
C         -2.83099       -2.66533        3.87500
C         -2.03293       -3.59128        3.17654
C         -1.85461       -4.85223        3.73937
C         -2.46548       -5.14201        4.96945
C         -3.25166       -4.20161        5.63617
C         -3.43943       -2.94720        5.08494
F         -4.21317       -2.04659        5.70205
F         -3.83653       -4.51880        6.79933
F         -2.29482       -6.35943        5.50262
C         -1.57316       -2.94935        1.90151
C         -0.59156       -3.41103        1.08387
C          0.10275       -4.62594        1.32270
N          0.67409       -5.62439        1.51975
C         -0.13486       -2.69498       -0.05820
N          0.22867       -2.10729       -0.98649
C         -2.30649       -1.66051        1.78680
C         -2.51871       -0.85213        0.73038
C         -3.34310        0.32120        0.70100
C         -2.92746        1.69964        0.32206
N         -3.83626        2.63098        0.39588
C         -4.93170        1.94453        0.81213
C         -4.63542        0.53683        0.94717
C         -5.88051       -0.19118        1.34687
S         -6.14525       -1.82994        1.45874
C         -6.84267        0.93988        1.52063
C         -6.19177        2.17851        1.15206
N         -7.03909        3.23166        1.28389
C         -8.12550        2.66798        1.72980
C         -8.08852        1.19215        1.90201
C         -9.15021        0.38747        2.42617
C        -10.33237        0.36624        1.76119
C        -11.48926       -0.31598        2.31608
C        -12.79269       -0.41734        1.91324
C        -13.53965        0.13098        0.67303
C        -12.89728        1.41655        0.04782
N        -13.55208        1.97861       -1.14229
C        -13.71326       -0.99697       -0.39860
N        -14.35229       -0.56360       -1.65346
C        -13.44039       -1.16565        3.02492
C        -14.72557       -1.40266        3.34349
C        -15.12918       -2.13134        4.63453
C        -13.96847       -2.67125        5.45519
C        -12.68863       -2.42179        5.14258
C        -12.42781       -1.60586        3.98697
C        -11.27869       -1.05769        3.58383
C         -9.99117       -1.07302        4.23278
C         -8.99411       -0.35980        3.68407
C        -16.13464       -3.20029        4.30187
C        -15.86504       -4.46446        3.93778
C        -16.87060       -5.41133        3.57618
C        -18.34204       -5.19432        3.51844
N        -19.07545       -6.19431        3.11762
C        -18.14893       -7.15471        2.87336
C        -16.81219       -6.67167        3.14641
C        -15.82653       -7.74246        2.79745
S        -14.16843       -7.73006        2.89633
C        -16.72750       -8.82188        2.28397
C        -18.10101       -8.38611        2.38801
N        -18.94425       -9.31534        1.86676
C        -18.12703      -10.24148        1.45402
C        -16.67590      -10.01555        1.70284
C        -15.59537      -10.80380        1.20890
C        -15.21134      -12.02634        1.59738
C        -14.36886      -12.82207        0.63817
O        -13.68261      -12.39366       -0.26314
C        -14.65039      -14.23262        0.95591
C        -15.48065      -14.31851        2.09234
C        -15.63921      -12.94503        2.65394
C        -15.82501      -12.64882        3.96141
C        -16.08526      -13.65162        4.94283
N        -16.29413      -14.48044        5.72234
C        -15.64315      -11.33473        4.49230
N        -15.49021      -10.29245        4.95909
C        -15.99400      -15.55629        2.45837
C        -15.62574      -16.68045        1.70965
C        -14.76596      -16.58052        0.61239
C        -14.27687      -15.34247        0.22138
F        -13.49075      -15.23574       -0.85590
F        -14.43743      -17.68057       -0.07878
F        -16.12653      -17.87424        2.05381
H         -1.28038       -5.64733        3.27902
H         -2.08532       -1.06198       -0.24233
H         -1.89447        1.88575       -0.00833
H         -9.04309        3.21928        1.98752
H        -10.40872        0.89184        0.82553
H        -14.54468        0.43285        0.99870
H        -11.88641        1.19680       -0.28533
H        -12.86054        2.21061        0.80045
H        -13.78933        1.17150       -1.74524
H        -12.86314        2.49762       -1.68915
H        -14.31866       -1.81164        0.01480
H        -12.73429       -1.41574       -0.65647
H        -15.33688       -0.34865       -1.48257
H        -14.32314       -1.30253       -2.35368
H        -15.53490       -1.04680        2.71617
H        -15.63771       -1.40677        5.28680
H        -14.19384       -3.26264        6.34067
H        -11.87256       -2.81647        5.73759
H         -9.84931       -1.60898        5.16335
H         -8.02843       -0.31730        4.18125
H        -17.15992       -2.84274        4.33702
H        -14.82855       -4.79507        3.88033
H        -18.76134       -4.21689        3.79537
H        -18.45451      -11.14760        0.92289
H        -15.12468      -10.36950        0.32269
H        -16.68223      -15.69713        3.28544
