108

C          0.42532        0.54184       -4.75371
S          1.61570        1.67869       -4.33103
C          0.44285        2.83291       -3.81353
C         -0.84196        2.31871       -3.92124
C         -0.84824        0.99545       -4.49358
C         -2.10758        0.22123       -4.73366
C         -3.36603        1.10050       -4.68977
C         -3.58357        1.82022       -6.01425
F         -2.57395        2.64110       -6.35813
F         -3.74371        0.92760       -7.01797
F         -4.71130        2.56712       -5.96273
C         -3.31492        2.06292       -3.48845
C         -2.11716        3.01419       -3.52931
C          0.92674        4.07866       -3.32807
C          0.25635        5.23332       -3.47279
C          0.70856        6.50791       -2.96979
C          1.87442        6.71104       -2.31575
C          1.97574        8.12097       -1.98673
C          0.76541        8.73726       -2.48120
C          0.01471        7.79578       -3.06313
F          0.44677       10.03236       -2.36449
C          3.00965        8.68877       -1.35859
C          3.15576       10.09618       -1.03434
C          4.32706       10.24629       -0.38119
C          4.99147        8.94624       -0.30319
C          4.20545        8.03240       -0.87345
F          4.48933        6.72867       -0.98320
C          4.80845       11.51751        0.07799
C          5.60433       11.63778        1.14843
C          6.01726       12.92098        1.58771
O          6.10658       13.97147        0.72202
C          6.52692       15.09324        1.37252
C          6.69178       14.75283        2.71464
C          6.38185       13.36150        2.85930
C          6.39772       12.52839        4.08417
F          6.09444       11.22190        3.86716
F          7.61727       12.52683        4.68094
F          5.50383       12.96502        5.00817
O          7.08191       15.71089        3.59067
C          7.21690       15.37934        4.95323
C          6.70068       16.30731        0.64660
C          7.12164       17.43864        1.22284
C          7.30238       18.69874        0.56241
C          7.71035       19.79660        1.23893
C          7.77057       20.90142        0.29797
C          7.38212       20.35618       -0.98677
C          7.10037       19.05990       -0.83719
F          7.30928       21.03700       -2.13677
C          8.10725       22.16159        0.58656
C          8.14992       23.25425       -0.36410
C          8.54986       24.36844        0.28902
C          8.72281       24.03302        1.70124
C          8.48213       22.72665        1.86493
F          8.57022       22.05534        3.01868
C          8.67697       25.65705       -0.33342
C          9.05488       25.80565       -1.61165
C          9.13939       27.09235       -2.18830
S          7.78997       27.72151       -3.00850
C          8.58890       29.18974       -3.42387
C          9.90391       29.16165       -2.96101
C         10.21393       27.95418       -2.23583
C         11.56807       27.68389       -1.64307
C         12.39121       28.96210       -1.45039
C         11.99620       29.71851       -0.18236
F         11.00555       29.11861        0.50927
F         13.06480       29.79063        0.65156
F         11.61501       30.98933       -0.42839
C         12.34073       29.82460       -2.72681
C         10.92233       30.25627       -3.13176
C          7.92645       30.22988       -4.14719
C          6.64079       30.19132       -4.53410
H          0.71890       -0.41301       -5.16733
H         -2.18156       -0.53795       -3.94370
H         -2.04349       -0.31784       -5.68589
H         -4.22830        0.43697       -4.54722
H         -3.26449        1.46947       -2.56576
H         -4.23970        2.64901       -3.42847
H         -2.00505        3.48427       -2.54493
H         -2.32666        3.81304       -4.24955
H          1.89711        4.06056       -2.84086
H         -0.68735        5.26863       -4.00638
H          2.62295        5.97451       -2.07525
H         -0.94816        7.94873       -3.52165
H          2.44148       10.87100       -1.26532
H          5.95774        8.76033        0.13508
H          4.46323       12.39663       -0.46467
H          5.91262       10.75977        1.70600
H          7.45914       16.30285        5.48850
H          8.05060       14.69211        5.10746
H          6.28042       15.01038        5.37300
H          6.47068       16.27247       -0.41374
H          7.35408       17.47105        2.28138
H          7.94162       19.85638        2.29130
H          6.77672       18.39098       -1.61729
H          7.89497       23.17768       -1.40961
H          9.01349       24.72777        2.47073
H          8.45197       26.52244        0.28680
H          9.30380       24.95857       -2.24341
H         12.10351       27.01787       -2.33369
H         11.48320       27.13812       -0.69527
H         13.43500       28.64677       -1.31531
H         12.77500       29.23982       -3.54975
H         12.97646       30.71048       -2.61313
H         10.94539       30.58424       -4.17794
H         10.60930       31.11995       -2.53434
H          8.50222       31.11678       -4.39296
H          5.97930       29.35626       -4.33448
H          6.20703       31.02575       -5.07548
