80

C         -1.99994        1.18031       -4.13136
C         -1.35858        1.33600       -2.79775
C         -0.26507        2.18488       -2.49154
C          0.09332        1.97780       -1.16730
C          1.27285        2.49420       -0.48747
S          2.67357        2.75540       -1.49182
C          3.56360        3.46339       -0.24054
C          2.87066        3.45111        0.94746
N          3.46840        3.98700        2.14318
O          4.15242        5.01080        2.01750
O          3.24425        3.39061        3.20324
C          1.54523        2.87103        0.83181
N          0.69659        2.88503        1.90517
C         -0.23651        1.97593        2.35356
C         -0.40494        0.67148        2.10572
C         -1.48922       -0.10214        2.63513
S         -2.61490        0.52973        3.78540
C         -3.54667       -0.88548        3.79875
C         -3.01486       -1.85653        2.98947
C         -1.83313       -1.41111        2.30767
C         -1.12636       -2.27789        1.30839
C         -1.84730       -3.59475        0.98637
C         -3.34962       -3.64064        1.32567
C         -3.93440       -5.03068        1.20299
O         -5.14146       -5.25318        1.16396
C         -3.59096       -3.20868        2.76719
O         -0.82345        1.10602       -0.63793
C         -1.67862        0.66253       -1.62194
C         -2.65529       -0.36240       -1.42706
C         -2.56999       -1.46332       -2.18873
N         -3.30124       -2.61805       -2.35304
C         -4.61020       -2.95609       -2.15692
C         -5.72718       -2.05994       -2.03308
N         -5.72987       -0.63705       -2.18431
O         -5.36308       -0.18905       -3.27854
O         -6.17753        0.01971       -1.23341
C         -6.91098       -2.71989       -1.78615
S         -6.71067       -4.40298       -1.79875
C         -5.01775       -4.30195       -2.12789
C         -4.22254       -5.53617       -2.23693
S         -2.54832       -5.54100       -1.81911
C         -2.41411       -7.22096       -1.87059
C         -3.50111       -7.76904       -2.50070
C         -4.57247       -6.81204       -2.68981
C         -5.85648       -7.22079       -3.37334
C         -5.87377       -8.67373       -3.89677
C         -6.57261       -9.59918       -2.91553
O         -6.55450      -10.82339       -3.02145
C         -4.47734       -9.22470       -4.22485
C         -3.57625       -9.17721       -2.98923
H         -1.44794        1.73170       -4.89841
H         -3.02794        1.55263       -4.11053
H         -2.01579        0.13119       -4.44327
H          0.24727        2.82922       -3.19227
H          4.55883        3.84790       -0.42564
H          0.94521        3.49411        2.69092
H         -0.88438        2.47902        3.06792
H          0.28714        0.17513        1.43200
H         -4.44719       -0.94282        4.39397
H         -0.11412       -2.50642        1.66353
H         -0.99573       -1.71577        0.37732
H         -1.32940       -4.42029        1.48997
H         -1.69551       -3.77032       -0.07864
H         -3.89349       -2.97877        0.64077
H         -3.21591       -5.86908        1.24335
H         -3.12204       -3.91930        3.45985
H         -4.66552       -3.21028        2.98649
H         -3.40787       -0.22296       -0.65949
H         -1.68709       -1.54419       -2.83052
H         -2.70103       -3.37254       -2.69803
H         -7.89070       -2.28657       -1.62789
H         -1.50442       -7.71708       -1.55860
H         -5.99658       -6.54795       -4.22948
H         -6.70212       -7.06469       -2.69676
H         -6.49635       -8.69049       -4.80019
H         -7.15552       -9.12485       -2.10904
H         -4.03167       -8.61925       -5.02612
H         -4.53278      -10.25347       -4.59636
H         -2.57513       -9.53739       -3.25389
H         -3.95359       -9.82742       -2.19146
