95

C          9.04983      -16.84707       29.21587
S          8.31776      -17.05111       27.67862
C          8.44138      -15.35972       27.28857
C          9.03547      -14.69604       28.34592
C          9.37107      -15.53551       29.42636
S         10.10636      -14.79445       30.82784
C         10.10156      -13.14597       30.18290
O         10.55110      -12.19171       30.79977
S          9.39359      -12.98914       28.57157
C          7.93259      -14.92594       26.02702
C          8.46353      -13.87765       25.38070
C          7.97496      -13.42419       24.12651
S          9.06661      -12.62037       23.07054
C          7.87126      -12.35422       21.87921
C          6.65245      -12.86523       22.28216
C          6.71127      -13.47935       23.56765
C          8.18264      -11.67721       20.64524
C          9.15430      -10.72440       20.41416
C          9.16124      -10.26341       19.06291
C          8.19769      -10.87716       18.28172
S          7.31775      -12.01959       19.21338
C          7.91755      -10.63629       16.87994
S          6.70783      -11.49309       16.01747
C          7.02971      -10.68717       14.53332
C          8.00067       -9.72342       14.72306
C          8.53066       -9.71672       16.05051
C          6.25735      -11.07807       13.40187
C          6.62794      -11.01257       12.11502
C          7.89497      -10.55248       11.53737
C          9.01088      -11.37910       11.32189
C         10.21795      -10.88523       10.70970
N         11.27404      -11.72658       10.57619
C         11.17855      -13.00793       11.01679
C         10.01287      -13.47299       11.57257
N          8.92441      -12.67112       11.71156
C          9.87718      -14.81159       12.06775
N          9.81131      -15.89740       12.46258
C         12.35440      -13.81390       10.87502
N         13.30100      -14.47935       10.77312
C         10.34091       -9.54766       10.24931
C          9.21095       -8.68774       10.44558
C          7.97215       -9.20268       11.11350
N          7.01336       -8.26974       11.24950
S          7.60106       -6.86970       10.60191
N          9.07282       -7.39964       10.08241
C         11.55230       -9.04677        9.55648
S         12.08325       -7.42915        9.76783
C         13.31358       -7.55724        8.58799
C         13.46158       -8.86922        8.18995
C         12.44624       -9.71708        8.73484
C         14.07616       -6.40723        8.16492
C         15.38979       -6.37483        7.74115
C         15.82452       -5.05580        7.40790
C         14.82982       -4.10877        7.56628
S         13.37932       -4.83954        8.10028
C         14.90371       -2.68692        7.32973
S         15.95916       -2.02919        6.15088
C         15.45168       -0.41646        6.45533
C         14.50546       -0.39055        7.46550
C         14.18948       -1.68772        7.96219
C         16.02754        0.64673        5.70592
C         15.33708        1.77197        5.46295
C         15.93917        2.84701        4.76202
S         15.81392        2.96049        3.04877
C         16.70101        4.45425        2.96971
C         17.08343        4.81516        4.24637
C         16.64913        3.91993        5.24467
S         17.07565        4.30428        6.90242
C         17.97460        5.77744        6.52265
O         18.50755        6.46573        7.38095
S         18.04097        6.17892        4.80439
C         16.91093        5.03641        1.68575
C         17.01183        6.35735        1.49523
H          9.19258      -17.69357       29.87377
H          7.12340      -15.49819       25.57907
H          9.32159      -13.34915       25.78299
H          5.74620      -12.79417       21.69214
H          5.85227      -13.91782       24.06126
H          9.82752      -10.35232       21.17898
H          9.84525       -9.50844       18.69689
H          8.32818       -9.03474       13.95758
H          9.31790       -9.04662       16.37320
H          5.26993      -11.49175       13.60255
H          5.91259      -11.35358       11.36620
H         14.22496       -9.21234        7.50151
H         12.37561      -10.77303        8.50002
H         16.02800       -7.24845        7.69180
H         16.82875       -4.81804        7.08035
H         14.06252        0.52107        7.84819
H         13.47382       -1.86606        8.75689
H         17.04272        0.52315        5.33169
H         14.31417        1.90713        5.80259
H         16.96568        4.37910        0.81972
H         16.92403        7.08368        2.29532
H         17.17448        6.75667        0.49886
