102

C          9.77265       -9.68823       -4.60909
S          8.13274       -9.94600       -4.17659
C          8.20873       -8.83794       -2.83423
C          9.49972       -8.35320       -2.73051
C         10.36567       -8.81323       -3.74301
S         12.01166       -8.22420       -3.73012
C         11.82458       -7.20637       -2.29346
O         12.72712       -6.50810       -1.85439
S         10.22579       -7.28208       -1.54274
C          7.01506       -8.62008       -2.07965
C          6.74926       -7.44041       -1.49873
C          5.49758       -7.23823       -0.73064
N          4.55389       -8.13519       -0.56946
C          3.63698       -7.48897        0.19102
C          4.07700       -6.15208        0.49429
C          3.05175       -5.48578        1.33800
O          3.04875       -4.37557        1.82117
C          2.00637       -6.52444        1.44435
C          2.43854       -7.70161        0.72972
N          1.47856       -8.66398        0.81477
C          0.54686       -8.08784        1.52422
C          0.80515       -6.70420        1.97742
C          5.24858       -5.90275       -0.08123
C          6.07994       -4.73784       -0.08405
C          5.61776       -3.47980       -0.01471
C          6.45439       -2.28986       -0.05423
C          7.23772       -2.05721       -1.13943
C          8.01505       -0.83566       -1.22052
C          8.81934       -0.35690       -2.20858
C          9.15226       -1.02176       -3.53677
C          8.10980       -0.56869       -4.58966
N          8.26448       -1.20224       -5.89969
C         10.63151       -0.82816       -3.98014
N         11.02845       -1.53880       -5.20261
C          9.27753        0.94886       -1.71172
C         10.05235        1.90510       -2.25287
C         10.48802        3.14822       -1.48765
C          9.77521        3.31748       -0.14829
C          8.94926        2.39257        0.37421
C          8.71881        1.18615       -0.37597
C          7.94831        0.12410       -0.10009
C          7.10669       -0.15343        1.03708
C          6.40140       -1.29851        1.04230
C         11.99794        3.11762       -1.33258
C         12.63058        2.54434       -0.29610
C         14.10149        2.48227       -0.18513
N         14.91299        3.35773       -0.72855
C         16.14215        2.90666       -0.37204
C         16.03010        1.70145        0.40776
C         17.39765        1.22923        0.75223
O         17.73038        0.24854        1.37938
C         18.25961        2.27061        0.13735
C         17.42038        3.23872       -0.52223
N         18.18392        4.20352       -1.09736
C         19.39605        3.83377       -0.78995
C         19.53997        2.59493        0.00479
C         14.75537        1.37582        0.60641
C         14.20662        0.22300        1.26518
C         13.05358        0.18748        1.94917
C         12.55484       -1.01514        2.51110
S         12.76378       -1.31296        4.19051
C         11.87382       -2.80143        4.15073
C         11.39955       -3.01057        2.87139
C         11.79660       -2.01663        1.95178
S         11.21922       -2.18189        0.30363
C         10.25341       -3.63403        0.59032
O          9.58348       -4.16968       -0.28169
S         10.34636       -4.26775        2.23842
C         11.74911       -3.51641        5.37634
C         11.69641       -4.85231        5.42991
H         10.20411      -10.19592       -5.46129
H          6.28983       -9.43085       -2.01705
H          7.42109       -6.59804       -1.58529
H         -0.40429       -8.56746        1.79765
H          0.18112       -6.05627        2.55917
H          7.15180       -4.90056       -0.16082
H          4.55399       -3.27392        0.09280
H          7.27752       -2.75456       -1.97046
H          9.02655       -2.10621       -3.40273
H          8.15058        0.51933       -4.71204
H          7.10222       -0.81668       -4.23368
H          9.26340       -1.16000       -6.14887
H          7.77466       -0.65343       -6.60334
H         11.30126       -1.13405       -3.16803
H         10.83408        0.21665       -4.20067
H         10.85881       -2.53768       -5.08528
H         12.03375       -1.42874       -5.33918
H         10.43216        1.84434       -3.25908
H         10.22506        4.02365       -2.09397
H          9.96075        4.23899        0.39580
H          8.45549        2.54479        1.32652
H          7.03085        0.55820        1.85053
H          5.73423       -1.52175        1.87326
H         12.58062        3.54238       -2.14838
H         12.03916        2.09194        0.47997
H         20.30103        4.38736       -1.08659
H         20.43822        2.12707        0.35562
H         14.82196       -0.67725        1.21389
H         12.45202        1.07067        2.12630
H         11.74495       -2.95442        6.30823
H         11.74611       -5.48515        4.55286
H         11.62592       -5.35623        6.39151
