114

C         10.34144        2.30730       -0.86883
S          9.01144        3.04373       -1.61677
C          8.01490        2.89346       -0.22507
C          8.74453        2.35780        0.83498
C         10.08365        1.98347        0.44271
C         11.07915        1.35327        1.37326
C         10.44791        0.85354        2.68343
C          9.86640       -0.49327        2.49466
N          9.39957       -1.54205        2.37025
C          9.37798        1.81990        3.23951
C         10.01957        3.07944        3.67328
N         10.56574        4.03888        4.01899
C          8.24227        2.10012        2.23253
C          6.62497        3.34204       -0.26500
N          6.01035        3.79871        0.81218
C          4.74716        4.08019        0.38551
C          4.61416        3.76382       -1.00795
C          3.22759        4.03580       -1.45534
O          2.72593        3.88981       -2.54688
C          2.59913        4.52660       -0.21103
C          3.57919        4.52257        0.84854
N          3.00130        4.95133        2.00122
C          1.77042        5.19603        1.63942
C          1.42109        4.95106        0.22436
C          5.75011        3.28547       -1.49333
C          6.02140        2.76319       -2.78993
C          5.34473        1.72920       -3.30333
C          5.63984        1.15865       -4.60021
C          4.64730        1.17452       -5.52205
C          4.84231        0.51812       -6.79599
C          4.00807        0.34982       -7.85610
C          2.58361        0.83116       -8.09168
C          1.52923        0.30054       -7.08142
N          1.45011       -1.15899       -7.00456
C          2.51740        2.38051       -8.11935
N          1.16208        2.89110       -8.36136
C          4.76578       -0.50785       -8.77958
C          4.43961       -1.05755       -9.96108
C          5.34848       -2.06769      -10.65959
C          6.73014       -2.20612      -10.02999
C          7.07534       -1.61021       -8.87666
C          6.08296       -0.80508       -8.21667
C          6.12991       -0.17291       -7.03877
C          7.19201       -0.09846       -6.06656
C          6.94744        0.54508       -4.91053
C          4.63825       -3.40606      -10.74866
C          4.69036       -4.41661       -9.85520
C          3.87054       -5.64049      -10.04618
N          2.71557       -5.65867      -10.67170
C          2.32288       -6.95463      -10.57892
C          3.31289       -7.72578       -9.87425
C          2.85581       -9.13771       -9.79100
O          3.40238      -10.10575       -9.31223
C          1.54487       -9.08173      -10.46334
C          1.29687       -7.73462      -10.90616
N          0.08141       -7.67094      -11.50934
C         -0.34940       -8.90011      -11.42530
C          0.53694       -9.88405      -10.77047
C          4.33010       -6.96612       -9.48492
C          5.49537       -7.31263       -8.71748
C          6.05403       -8.53705       -8.74001
C          7.21731       -8.91571       -8.00499
S          7.32532      -10.57270       -7.51595
C          8.87777      -10.36985       -6.86260
C          9.34084       -9.08221       -7.00343
C          8.36247       -8.22116       -7.62073
C          8.64154       -6.75524       -7.82228
C         10.13417       -6.39051       -7.72284
C         10.82365       -6.69014       -8.98695
N         11.44354       -6.96037       -9.93153
C         10.88669       -7.11128       -6.58556
C         10.48634       -6.56609       -5.27967
N         10.20415       -6.09452       -4.26033
C         10.72042       -8.63679       -6.62119
H         11.25994        2.16061       -1.42203
H         11.83917        2.11059        1.60744
H         11.60202        0.53640        0.85781
H         11.25830        0.74622        3.41816
H          8.92270        1.37148        4.13320
H          7.64013        2.94281        2.58811
H          7.57926        1.22588        2.18769
H          0.98843        5.56518        2.32051
H          0.48019        5.07475       -0.27385
H          6.81011        3.23494       -3.36838
H          4.52794        1.25542       -2.76010
H          3.69103        1.63181       -5.29706
H          2.26321        0.47795       -9.08101
H          0.53551        0.66042       -7.37886
H          1.70823        0.70440       -6.07955
H          1.32673       -1.53812       -7.94277
H          0.60921       -1.41096       -6.48563
H          3.18657        2.78090       -8.88937
H          2.85718        2.78520       -7.16083
H          1.02312        3.75501       -7.83698
H          1.05805        3.13682       -9.34469
H          3.48770       -0.84080      -10.43206
H          5.51760       -1.70241      -11.68211
H          7.45466       -2.82255      -10.55470
H          8.06142       -1.72870       -8.44531
H          8.15449       -0.54959       -6.27194
H          7.72704        0.61436       -4.15658
H          4.00847       -3.50390      -11.63202
H          5.28477       -4.35030       -8.95327
H         -1.32397       -9.23790      -11.80682
H          0.38070      -10.92950      -10.59470
H          5.89727       -6.53780       -8.07735
H          5.60766       -9.32633       -9.34262
H          9.39486      -11.21538       -6.42888
H          8.09171       -6.20936       -7.04358
H          8.24551       -6.42046       -8.78880
H         10.19801       -5.30360       -7.56825
H         11.96354       -6.90482       -6.68587
H         11.01044       -9.08589       -5.66332
H         11.40748       -9.04572       -7.37553
