107

C          1.09034        0.46140       -0.61213
C         -0.26676        0.90967       -1.06545
O         -1.28759        0.86055       -0.41037
C         -0.07405        1.47893       -2.42399
C          1.28528        1.35290       -2.78509
C          1.95592        0.47233       -1.79157
C          2.94521       -0.41216       -2.07458
C          3.22032       -1.52133       -1.21918
N          3.38419       -2.44797       -0.53830
C          3.65322       -0.40747       -3.30932
N          4.21944       -0.40538       -4.32313
C          1.74496        1.97493       -3.93246
C          0.82220        2.62661       -4.75853
C         -0.55684        2.65598       -4.45821
C         -1.03278        2.08379       -3.25411
C         -2.41907        2.12821       -2.98473
C         -3.31125        2.69642       -3.89541
C         -2.83634        3.25142       -5.07775
C         -1.46829        3.24185       -5.35096
C          1.30215        0.31731        0.70283
C          2.63010        0.14478        1.33068
N          3.76297        0.61452        0.86691
C          4.66868        0.21237        1.80196
C          4.01307       -0.50710        2.86254
C          5.01442       -0.91153        3.87926
O          4.85463       -1.49991        4.92314
C          6.27093       -0.38328        3.29785
C          5.97387        0.27359        2.04886
N          7.11465        0.76715        1.50312
C          8.02345        0.42408        2.37516
C          7.56697       -0.31729        3.57056
C          2.71181       -0.59522        2.62742
C          1.65930       -1.21065        3.35731
C          1.64726       -2.51491        3.65993
C          0.53826       -3.08668        4.34403
S          0.18317       -4.76929        4.06329
C         -1.12037       -4.62572        5.11586
C         -1.32551       -3.40165        5.67643
C         -0.34600       -2.48022        5.23471
S         -2.71233       -3.57713        6.68694
C         -2.97560       -5.25185        6.36636
C         -3.80947       -6.35752        6.67046
C         -3.35716       -7.50859        6.02565
S         -1.98677       -7.21199        4.98286
C         -1.99689       -5.61216        5.48925
C         -3.94090       -8.80592        6.10062
C         -3.22726       -9.93239        5.95609
C         -3.95521      -11.21268        5.98380
N         -5.06976      -11.40982        6.63881
C         -5.36016      -12.70159        6.36201
C         -4.34725      -13.28456        5.51608
C         -4.73276      -14.69507        5.22969
O         -4.13085      -15.54812        4.61330
C         -6.01892      -14.82922        5.95940
C         -6.31486      -13.58662        6.62101
N         -7.48289      -13.68272        7.30510
C         -7.85616      -14.90810        7.06192
C         -6.97208      -15.72089        6.19747
C         -3.39807      -12.39517        5.24297
C         -2.24252      -12.43397        4.39146
C         -1.55361      -13.53888        4.07577
C         -0.40382      -13.50981        3.19650
C          0.01988      -14.51057        2.40869
C          1.41165      -14.43930        1.86021
O          2.10653      -13.44601        1.79716
C          1.76889      -15.82785        1.47644
C          0.65873      -16.67643        1.70060
C         -0.51231      -15.84068        2.10337
C         -1.81735      -16.16425        1.91717
C         -2.83000      -15.16270        1.79494
N         -3.63956      -14.35009        1.61056
C         -2.26788      -17.49528        1.69250
N         -2.63071      -18.58697        1.53421
C          0.79062      -18.03132        1.44277
C          1.99334      -18.50897        0.90657
C          3.08467      -17.65655        0.64359
C          2.99769      -16.27987        0.95566
C          4.12572      -15.46304        0.71055
C          5.28934      -15.98727        0.14509
C          5.35219      -17.33474       -0.18672
C          4.26001      -18.16415        0.06684
H          2.79179        1.97216       -4.22087
H          1.18817        3.09729       -5.67107
H         -2.82535        1.69345       -2.07330
H         -4.37755        2.69587       -3.68240
H         -3.53045        3.68791       -5.79168
H         -1.12053        3.68241       -6.28350
H          0.46380        0.40056        1.38999
H          9.09418        0.65436        2.26975
H          8.14063       -0.67901        4.40016
H          0.82605       -0.56415        3.62116
H          2.46073       -3.17075        3.34677
H         -0.28860       -1.44792        5.55395
H         -4.66632       -6.32249        7.33171
H         -5.01180       -8.85707        6.29204
H         -2.15669       -9.95055        5.80015
H         -8.77524      -15.36058        7.46286
H         -7.09610      -16.73480        5.87685
H         -1.94534      -11.48516        3.94533
H         -1.83839      -14.50596        4.48465
H          0.20626      -12.60726        3.26240
H         -0.00272      -18.74933        1.61708
H          2.06925      -19.57214        0.67734
H          4.11045      -14.40169        0.95138
H          6.14127      -15.33789       -0.04143
H          6.25142      -17.74233       -0.64162
H          4.33301      -19.21683       -0.19993
