108

C          4.78053        2.12982       -1.03063
C          3.51100        2.88302       -0.71368
O          2.37650        2.46213       -0.83685
C          3.90718        4.20487       -0.20719
C          5.30538        4.33615       -0.30349
C          5.89055        3.09129       -0.90691
C          7.16320        2.95382       -1.34844
C          7.66095        1.72978       -1.86858
N          8.07957        0.72048       -2.26264
C          8.10418        4.03332       -1.37438
N          8.85803        4.90354       -1.42168
C          5.88762        5.48337        0.21760
C          5.07471        6.47649        0.78470
C          3.67555        6.33708        0.86956
C          3.05720        5.17228        0.36770
C          1.65369        5.04670        0.49788
C          0.88938        6.04156        1.10701
C          1.50764        7.18549        1.59309
C          2.88971        7.33340        1.47248
C          4.55737        0.82748       -1.27764
C          5.33331       -0.39168       -1.55706
C          5.78477       -1.21907       -0.52746
C          5.94729       -0.79133        0.87461
O          5.80006        0.34492        1.28560
S          6.47440       -2.11491        1.87142
C          5.98622       -3.22730        0.61589
O          5.35354       -4.22915        0.89058
C          6.05383       -2.59802       -0.72667
C          6.03746       -3.21270       -2.01210
C          5.53535       -2.35774       -3.01462
C          5.24898       -0.99211       -2.81461
C          4.76766       -0.32519       -4.03642
O          4.48264        0.85443       -4.12807
S          4.68977       -1.44325       -5.37067
C          4.92200       -2.78412       -4.27894
O          4.48208       -3.89852       -4.49221
C          6.53373       -4.61250       -2.33853
S          6.40914       -5.82371       -1.13014
C          6.94042       -7.10354       -2.09244
C          7.26762       -6.64584       -3.34735
C          7.14971       -5.19015       -3.47608
C          7.58973       -4.54871       -4.79056
S          8.80107       -3.21761       -4.49443
C          8.18555       -5.53843       -5.82465
C          7.44975       -6.87494       -5.82375
C          7.68106       -7.54117       -4.48263
C          6.93231       -8.40922       -1.52669
C          7.82727       -9.35048       -1.87005
C          7.88623      -10.71920       -1.33255
C          8.33322      -11.79836       -2.11884
C          8.68695      -11.74025       -3.55317
O          8.57389      -10.76901       -4.27631
S          9.25998      -13.27155       -4.14567
C          9.10807      -14.00392       -2.57232
O          9.47904      -15.14096       -2.36131
C          8.49734      -13.08877       -1.57977
C          8.11496      -13.40253       -0.24920
C          7.47984      -12.36025        0.43606
C          7.51969      -11.03766       -0.02152
C          7.26226      -10.09988        1.08711
O          7.67596       -8.95987        1.16291
S          6.42228      -10.88602        2.39571
C          6.69110      -12.44611        1.67149
O          6.23793      -13.47773        2.12888
C          8.46186      -14.72482        0.34360
C          8.74696      -15.18359        1.57813
C          9.15913      -16.63454        1.69807
O          9.46633      -17.37667        0.78821
C          9.10529      -16.96723        3.13820
C          8.55498      -15.88008        3.83291
C          8.69933      -14.68919        2.95525
C          9.14488      -13.50633        3.44855
C          9.78341      -12.56192        2.60352
N         10.25527      -11.80560        1.85904
C          9.07496      -13.15101        4.82795
N          8.98825      -12.84797        5.93825
C          8.16735      -16.03149        5.15161
C          8.54810      -17.19692        5.82097
C          9.33323      -18.18354        5.18672
C          9.59424      -18.09719        3.79842
C         10.40567      -19.07538        3.18831
C         11.00094      -20.07961        3.94990
C         10.75630      -20.15175        5.31707
C          9.90620      -19.22761        5.92628
H          6.95862        5.65089        0.24151
H          5.55406        7.36793        1.18956
H          1.13338        4.16414        0.13139
H         -0.18620        5.91499        1.20217
H          0.91555        7.96117        2.07173
H          3.35252        8.23565        1.86726
H          3.50079        0.52664       -1.26128
H          6.72994       -4.10201       -5.28281
H          9.01494       -2.92472       -5.78667
H          9.24812       -5.73674       -5.62690
H          8.12733       -5.10631       -6.83115
H          6.37645       -6.72629       -5.99589
H          7.82285       -7.52736       -6.62104
H          8.74444       -7.78931       -4.37434
H          7.10952       -8.47591       -4.45764
H          6.18681       -8.58407       -0.75692
H          8.58563       -9.11825       -2.61065
H          8.52927      -15.50102       -0.42273
H          7.63191      -15.25940        5.69658
H          8.29819      -17.29369        6.87725
H         10.63583      -19.02883        2.12517
H         11.67344      -20.79022        3.47581
H         11.23935      -20.92044        5.91471
H          9.73787      -19.29944        6.99885
