118

C          4.53654       -3.96700       12.09327
C          3.66120       -3.82866       13.30738
O          3.41171       -2.80110       13.89927
C          3.10213       -5.19626       13.53529
C          3.67840       -6.08693       12.60416
C          4.81607       -5.39584       11.96948
C          6.00885       -5.96321       11.66990
C          7.17443       -5.16545       11.46603
N          8.12811       -4.51795       11.34509
C          6.20078       -7.37334       11.65065
N          6.33474       -8.52563       11.61317
C          3.16014       -7.35561       12.43080
C          2.12711       -7.76635       13.27477
C          1.63116       -6.92948       14.29830
C          2.11578       -5.60422       14.44060
C          1.60765       -4.80000       15.48129
C          0.66211       -5.30339       16.37444
C          0.18599       -6.60194       16.22698
C          0.65813       -7.40345       15.18816
C          4.63852       -2.94154       11.22602
C          5.02941       -3.05707        9.84973
C          5.59259       -2.07945        9.03092
F          5.88925       -0.87501        9.43749
C          5.87431       -2.55725        7.72822
C          5.47485       -3.85479        7.61733
S          4.64491       -4.50033        8.92213
C          5.82235       -4.51112        6.46481
C          6.46794       -3.76277        5.52535
S          6.56982       -2.17276        6.19404
C          6.81584       -4.57908        4.42879
F          7.45364       -4.15205        3.37263
C          6.49624       -5.91179        4.65895
S          5.60317       -6.15023        6.12838
C          6.82927       -7.03402        3.84249
C          8.07148       -7.55382        4.02266
C          8.62573       -8.40810        2.99143
C          9.88978       -8.88037        2.82046
C         11.08199       -8.95149        3.76645
C         11.87970       -7.62463        3.72953
N         13.09337       -7.63184        4.55063
C         10.65989       -9.40321        5.20472
N         11.74560       -9.48884        6.19173
C          9.93731       -9.18372        1.38243
C         10.97524       -9.21389        0.53112
C         10.75483       -9.20034       -0.98209
C          9.31930       -9.46019       -1.41960
C          8.28937       -9.43941       -0.55838
C          8.59407       -9.13948        0.81207
C          7.81284       -8.64622        1.77720
C          6.42395       -8.26978        1.74222
C          5.96530       -7.49312        2.74013
C         11.74158      -10.10818       -1.64683
C         11.58119      -11.41319       -1.92937
C         12.63768      -12.17923       -2.50050
C         12.54369      -13.26975       -3.35813
F         11.41337      -13.77466       -3.77309
C         13.81456      -13.71647       -3.79435
C         14.78842      -13.00659       -3.16155
S         14.29892      -11.82913       -2.07207
C         16.08133      -13.30536       -3.49424
C         16.25966      -14.23332       -4.47335
S         14.66684      -14.80599       -4.83486
C         17.63695      -14.32272       -4.79273
F         18.12223      -15.12216       -5.70355
C         18.40470      -13.40044       -4.08553
S         17.46138      -12.62429       -2.82644
C         19.81007      -13.14233       -4.17381
C         20.38505      -11.94550       -3.96356
C         21.82794      -11.92868       -3.55623
O         22.67283      -12.74859       -3.86418
C         21.95974      -10.77064       -2.62989
C         20.74751      -10.04428       -2.62440
C         19.86409      -10.60727       -3.67631
C         18.93188       -9.92881       -4.38807
C         18.30185      -10.49419       -5.53641
N         17.78417      -10.94993       -6.47137
C         18.56538       -8.58651       -4.08634
N         18.26087       -7.49766       -3.82742
C         20.54409       -9.05188       -1.68814
C         21.57935       -8.74855       -0.79889
C         22.81735       -9.42478       -0.83987
C         23.02833      -10.46937       -1.77254
C         24.27344      -11.13672       -1.77396
C         25.28585      -10.76909       -0.88617
C         25.06948       -9.74414        0.02775
C         23.84313       -9.08081        0.05427
H          3.52095       -8.03506       11.66331
H          1.72173       -8.76951       13.14648
H          1.96901       -3.78415       15.62882
H          0.30589       -4.68375       17.19321
H         -0.54744       -6.99603       16.92456
H          0.27292       -8.41643       15.09553
H          4.30571       -1.95260       11.54419
H          8.73342       -7.17271        4.79213
H         11.74572       -9.74844        3.39741
H         11.24094       -6.79502        4.05011
H         12.19549       -7.41464        2.70216
H         12.81968       -7.94494        5.49445
H         13.43533       -6.67962        4.66504
H         10.18712      -10.39130        5.14121
H          9.91945       -8.72508        5.63096
H         12.48847      -10.08737        5.82593
H         11.40177       -9.94207        7.03897
H         11.99346       -9.10407        0.89064
H         10.98647       -8.18188       -1.32956
H          9.12697       -9.60700       -2.47907
H          7.26568       -9.58431       -0.88056
H          5.79115       -8.58144        0.92026
H          4.93292       -7.15684        2.73808
H         12.67909       -9.60423       -1.87787
H         10.63708      -11.91268       -1.72600
H         20.44393      -14.01775       -4.31785
H         19.60259       -8.51945       -1.59350
H         21.40957       -7.97015       -0.05479
H         24.47431      -11.94352       -2.47616
H         26.24181      -11.28570       -0.91106
H         25.85527       -9.46033        0.72336
H         23.69546       -8.28659        0.78280
