98

C          2.27580        2.32069        0.76931
C          0.83279        2.68253        0.52895
O          0.29819        3.72542        0.84840
C          0.22920        1.54452       -0.20374
C          1.20276        0.53810       -0.37062
C          2.42648        0.90424        0.40363
C          3.32964        0.01378        0.88347
C          4.28714        0.35088        1.87679
N          5.05593        0.59635        2.71382
C          3.33223       -1.36579        0.53734
N          3.34690       -2.49365        0.26126
C          0.89002       -0.57607       -1.13350
C         -0.41184       -0.72579       -1.62185
C         -1.40792        0.24003       -1.38579
C         -1.09049        1.42873       -0.68619
C         -2.11125        2.39053       -0.50686
C         -3.40874        2.16369       -0.97231
C         -3.71405        0.97845       -1.63012
C         -2.71776        0.02738       -1.84290
C          3.10185        3.32622        1.10193
C          4.52688        3.36045        1.18521
C          5.32296        3.81907        2.35767
N          6.61736        3.85724        2.21100
C          6.78727        3.43768        0.93162
C          5.51363        3.15115        0.31324
C          5.73973        2.75594       -1.11040
S          4.60405        2.25340       -2.21425
C          7.22861        2.89171       -1.23581
C          7.77073        3.26239        0.05747
N          9.12201        3.40007        0.00205
C          9.38315        3.15104       -1.24952
C          8.22342        2.83029       -2.11742
C          8.19485        2.62333       -3.50161
N          9.27469        2.00114       -4.09358
C          9.01958        1.89541       -5.43186
C          9.56883        1.40743       -6.63896
C          8.62661        1.71177       -7.60825
N          7.55923        2.35595       -7.02276
C          7.81590        2.45658       -5.68629
C          7.26750        2.94406       -4.48156
C          8.55579        1.50033       -9.00241
C          9.17179        0.45763       -9.57677
C          9.09082        0.16573      -10.97289
C          8.26897        0.85554      -12.00381
N          8.26920        0.34230      -13.20110
C          9.06503       -0.74608      -13.05298
C          9.60454       -0.81226      -11.71734
C         10.48257       -2.01546      -11.61090
S         11.62775       -2.35407      -10.45556
C         10.13195       -2.75638      -12.86837
C          9.38604       -1.84658      -13.72202
N          9.08338       -2.42722      -14.90789
C          9.52041       -3.64022      -14.74183
C         10.14931       -3.96782      -13.42322
C         10.56066       -5.29766      -13.08668
C         10.62931       -5.95678      -11.92029
C         11.22532       -7.34184      -11.93487
O         11.30812       -8.07265      -12.90031
C         11.72102       -7.58513      -10.55739
C         11.40108       -6.46978       -9.76007
C         10.43750       -5.62597      -10.51215
C          9.39883       -4.97488       -9.93984
C          8.31961       -4.45992      -10.70363
N          7.44574       -4.01907      -11.32643
C          9.27125       -4.80580       -8.53081
N          9.17532       -4.64744       -7.38577
C         11.97270       -6.33791       -8.50702
C         12.76945       -7.38078       -8.02299
C         12.97920       -8.56257       -8.76686
C         12.44968       -8.68093      -10.07434
C         12.65752       -9.88054      -10.78848
C         13.35704      -10.94279      -10.21564
C         13.88628      -10.81580       -8.93637
C         13.70810       -9.63061       -8.22183
H          1.60756       -1.35454       -1.36908
H         -0.64991       -1.62582       -2.18884
H         -1.91148        3.32695        0.01039
H         -4.18117        2.91210       -0.81266
H         -4.72637        0.79295       -1.98043
H         -2.97767       -0.89228       -2.36401
H          2.65721        4.30389        1.30867
H          4.80073        4.10049        3.28455
H         10.39500        3.17963       -1.68102
H         10.11824        1.64153       -3.66343
H         10.51919        0.91363       -6.78483
H          6.70635        2.68980       -7.45565
H          6.32651        3.46051       -4.35611
H          7.97213        2.20076       -9.59192
H          9.72851       -0.24730       -8.96240
H          7.69187        1.75042      -11.73160
H          9.44718       -4.42398      -15.51166
H         10.84723       -5.86690      -13.97778
H         11.83345       -5.45416       -7.89090
H         13.21274       -7.27714       -7.03257
H         12.24658      -10.01425      -11.78760
H         13.48171      -11.87047      -10.76881
H         14.43338      -11.64234       -8.48986
H         14.13142       -9.55584       -7.22198
