120

C          8.67274       -3.69131        3.13923
C          8.37623       -4.70273        4.22165
O          9.07009       -5.65150        4.52262
C          7.11939       -4.23539        4.87596
C          6.66083       -3.09106        4.19972
C          7.42458       -2.95297        2.93675
C          6.91025       -2.47106        1.78100
C          7.59994       -2.56649        0.53648
N          8.16131       -2.60455       -0.47129
C          5.62168       -1.87234        1.70664
N          4.57904       -1.35973        1.64007
C          5.67365       -2.29939        4.76379
C          5.05406       -2.73502        5.93441
C          5.39627       -3.96366        6.53022
C          6.46675       -4.73818        6.01155
C          6.77880       -5.96167        6.63853
C          6.02288       -6.42492        7.71778
C          4.97087       -5.66182        8.21386
C          4.67197       -4.43001        7.63550
C          9.94637       -3.48230        2.75879
C         10.47178       -2.40030        1.97296
C         11.61436       -2.49033        1.01528
N         11.89171       -1.41743        0.32766
C         10.96534       -0.52877        0.76835
C         10.18697       -1.09709        1.85090
C          9.26749       -0.02955        2.36717
S          8.52024        0.10484        3.84420
C          9.35961        1.00248        1.29222
C         10.48301        0.67222        0.44910
N         10.66963        1.64644       -0.48086
C          9.67376        2.45994       -0.25378
C          8.74285        2.09525        0.84064
C          7.52713        2.77425        1.22186
C          7.57789        4.07104        1.63574
C          6.42030        4.65097        2.30277
C          6.26485        5.83365        2.96216
C          7.15186        7.07780        2.91228
C          6.67346        7.98267        1.73283
N          7.48295        9.18920        1.52328
C          7.24465        7.87049        4.24565
N          8.08993        9.07220        4.21242
C          5.04935        5.60863        3.76272
C          4.68745        6.05773        4.97777
C          3.50577        5.48278        5.74765
C          2.64755        4.52047        4.93832
C          3.04550        4.01866        3.75579
C          4.33405        4.43397        3.26673
C          5.19141        3.83046        2.43417
C          5.09257        2.57309        1.74253
C          6.21124        2.08080        1.17590
C          2.71922        6.60297        6.37287
C          1.67379        7.24215        5.82932
C          0.99168        8.30446        6.48681
C         -0.47196        8.39541        6.71595
N         -0.90899        9.49195        7.26786
C          0.22455       10.22606        7.41881
C          1.37944        9.48901        6.95629
C          2.59371       10.35290        7.07642
S          4.19520        9.98731        6.83790
C          1.98684       11.65698        7.47945
C          0.58080       11.46165        7.75166
N          0.00111       12.63004        8.12617
C          0.97811       13.48718        8.02091
C          2.28816       12.94925        7.56381
C          3.45267       13.71180        7.24565
C          4.06101       13.80815        6.05110
C          5.43080       14.42069        5.99782
O          5.90654       15.17271        6.82293
C          6.07449       13.87413        4.77626
C          5.14131       13.06690        4.08604
C          3.80397       13.22587        4.72851
C          2.60993       13.15143        4.07971
C          1.42767       13.74063        4.61374
N          0.47830       14.26605        5.02339
C          2.47460       12.60897        2.76504
N          2.36146       12.15072        1.71560
C          5.56419       12.34027        2.98716
C          6.88580       12.48920        2.54922
C          7.80385       13.33349        3.20128
C          7.40502       14.05499        4.34916
C          8.35241       14.90267        4.96656
C          9.64838       15.03028        4.45988
C         10.03126       14.30578        3.33768
C          9.11559       13.45945        2.71541
H          5.37596       -1.34420        4.34073
H          4.27273       -2.11256        6.36989
H          7.58916       -6.58651        6.26786
H          6.25085       -7.38953        8.16430
H          4.37706       -6.02664        9.04822
H          3.84694       -3.84733        8.04140
H         10.70454       -4.18929        3.10704
H         12.17739       -3.43365        0.92668
H          9.50005        3.38845       -0.81671
H          8.50706        4.62890        1.66225
H          8.17258        6.75257        2.66986
H          5.63312        8.28937        1.89400
H          6.70764        7.42173        0.79230
H          7.68571        9.57872        2.45996
H          6.90776        9.88983        1.06150
H          7.62374        7.20856        5.03222
H          6.25347        8.22847        4.53091
H          9.03840        8.82161        3.93134
H          8.15343        9.47251        5.14888
H          5.29719        6.75128        5.53800
H          3.91602        4.89074        6.57863
H          1.70961        4.18853        5.37539
H          2.44831        3.30042        3.20657
H          4.14305        2.05114        1.69025
H          6.15094        1.14357        0.63004
H          3.07994        6.90450        7.35634
H          1.30602        6.96120        4.84449
H         -1.11623        7.55427        6.41717
H          0.87836       14.56544        8.21698
H          3.89784       14.22101        8.10253
H          4.91947       11.65568        2.44576
H          7.20890       11.94360        1.66558
H          8.08629       15.48962        5.84331
H         10.35661       15.69875        4.94338
H         11.04005       14.40001        2.94317
H          9.43662       12.89723        1.83955
