130

C         12.29483        9.14665        5.95263
S         11.51236        9.38100        4.45496
C         10.57736        7.94376        4.61961
C         10.79435        7.36327        5.86980
C         11.87051        8.00292        6.59643
C         12.44334        7.44258        7.87575
N         13.74790        6.87683        7.51829
C         11.54547        6.36406        8.51517
C         10.90176        5.43595        7.47624
C         10.03124        6.21823        6.48157
N          8.87579        6.79944        7.16925
C          9.65999        7.58853        3.58087
C          9.50517        6.30923        3.19391
C          8.33808        5.83385        2.42650
C          8.29750        5.43649        1.07187
C          9.42319        5.80226        0.15076
O         10.48990        6.12085        0.67322
C          9.33164        5.82190       -1.32421
C         10.55184        5.68856       -1.99094
S         10.42603        5.48083       -3.66666
C          8.75236        5.71857       -3.58366
C          8.26370        6.02540       -2.31058
C          6.82972        6.39178       -2.26815
O          6.08835        5.96464       -3.15885
C          6.17269        7.25878       -1.24589
C          6.83517        7.89076       -0.19507
C          6.10341        8.43572        0.86725
C          4.71147        8.47231        0.82475
C          4.04147        7.98069       -0.28748
C          4.76723        7.37116       -1.31077
C          7.12138        4.81902        0.60784
C          5.91594        4.88551        1.35914
C          5.91243        5.47721        2.63222
C          7.15377        5.80507        3.17360
C          4.67433        5.94625        3.32037
N          4.78075        6.51392        4.57945
C          3.65130        7.20910        4.84942
C          3.11948        8.08460        5.81888
C          1.85258        8.38358        5.36197
N          1.62588        7.72835        4.16745
C          2.75663        6.99725        3.86431
C          3.36498        6.13855        2.89085
C          0.83358        9.16053        5.96591
C          0.43435       10.32566        5.43982
C         -0.50070       11.31056        6.05694
C         -0.97205       12.45363        5.38185
C         -1.17460       12.66115        3.86120
O         -1.23561       13.82658        3.47401
C         -1.24447       11.54138        2.87137
C         -1.46610       10.21674        3.23786
S         -0.80782        9.12484        2.10541
C         -0.59843       10.39349        0.99327
C         -1.25123       11.55489        1.38413
C         -1.77947       12.57166        0.42128
O         -2.13187       13.69165        0.77909
C         -2.15649       12.16338       -1.00627
C         -1.37531       11.34195       -1.82939
C         -1.85103       10.85096       -3.05493
C         -3.08050       11.26680       -3.54331
C         -3.82380       12.18900       -2.80997
C         -3.37201       12.62141       -1.54633
C         -1.25252       13.56287        6.20877
C         -1.23224       13.48826        7.62694
C         -1.03437       12.27780        8.30618
C         -0.68501       11.21158        7.47434
C         -1.06104       12.15485        9.81272
S         -1.87947       13.38640       10.70961
C         -1.35406       12.82550       12.24301
C         -0.53295       11.71572       12.09292
C         -0.57769       11.19124       10.71765
C          0.00078        9.81571       10.42215
N         -1.05547        8.97679        9.84735
C          0.52678        9.06801       11.66181
C          1.26495       10.00312       12.60370
C          0.28037       11.03110       13.18039
N          1.05818       12.02359       13.92042
C         -1.76706       13.57910       13.38812
C         -2.00392       13.03124       14.58470
H         13.05682        9.83904        6.28594
H         12.60394        8.24472        8.60540
H         13.64599        6.29624        6.68710
H         14.07410        6.26240        8.26016
H         10.75765        6.85550        9.10001
H         12.11503        5.76336        9.23563
H         10.29915        4.67276        7.98458
H         11.68629        4.89908        6.92741
H          9.66880        5.51863        5.72428
H          8.37870        7.41258        6.52728
H          8.23815        6.06008        7.45025
H          9.04330        8.37634        3.15701
H         10.15329        5.51799        3.56228
H         11.53730        5.64247       -1.54045
H          8.18146        5.67114       -4.50379
H          7.91523        7.91036       -0.12835
H          6.61882        8.78088        1.76074
H          4.15130        8.86037        1.67258
H          2.95720        8.02803       -0.33984
H          4.21808        6.95467       -2.15499
H          7.07483        4.37825       -0.38428
H          4.99709        4.55266        0.90085
H          7.22639        6.15382        4.20434
H          5.58112        6.56136        5.18685
H          3.59280        8.45258        6.72137
H          0.79284        7.76171        3.59119
H          2.92872        5.81072        1.95686
H          0.49995        8.81325        6.93511
H          0.89843       10.66646        4.50844
H         -1.78126        9.81721        4.18936
H         -0.14105       10.12392        0.06018
H         -0.35787       11.07979       -1.57080
H         -1.24980       10.15017       -3.63174
H         -3.44326       10.90100       -4.50039
H         -4.76145       12.56255       -3.21702
H         -3.99203       13.32624       -0.99046
H         -1.45729       14.53604        5.76088
H         -1.37858       14.41722        8.17624
H         -0.49851       10.25900        7.94100
H          0.82648        9.92659        9.70987
H         -1.84990        8.96125       10.48917
H         -0.73110        8.01256        9.78499
H          1.19252        8.25533       11.34446
H         -0.29283        8.59242       12.21982
H          2.08468       10.49287       12.06060
H          1.72074        9.42384       13.41665
H         -0.40345       10.51865       13.86763
H          1.62608       12.56149       13.26715
H          1.70321       11.56183       14.55581
H         -1.93023       14.64881       13.26749
H         -1.89500       11.97357       14.78620
H         -2.31583       13.65471       15.41871
