114

C         -1.74992        1.89942      -11.82385
S         -0.33901        0.97209      -11.55857
C         -0.91564        0.31632      -10.04636
C         -2.18345        0.82485       -9.78027
C         -2.67075        1.69504      -10.83188
C         -3.93140        2.29806      -10.85650
C         -4.70553        1.93682       -9.73193
C         -6.10456        2.40793       -9.66630
O         -6.73466        2.41978       -8.61517
C         -4.23132        1.11811       -8.66262
C         -2.94333        0.54678       -8.63059
C         -0.02219       -0.58038       -9.37309
C         -0.44065       -1.48585       -8.48084
C          0.50365       -2.36866       -7.76775
N          1.78932       -2.44271       -7.99984
C          2.20684       -3.38926       -7.12526
C          1.10037       -3.89493       -6.34789
C          1.61558       -4.93972       -5.42287
O          1.03091       -5.63740       -4.61730
C          3.05710       -4.94731       -5.72071
C          3.33298       -3.99306       -6.75911
N          4.66257       -3.99644       -7.03745
C          5.13019       -4.89053       -6.21037
C          4.15953       -5.55907       -5.32076
C         -0.02598       -3.27664       -6.67997
C         -1.37170       -3.37555       -6.20096
C         -1.78734       -4.12618       -5.17228
C         -3.14908       -4.23455       -4.64535
C         -4.18738       -3.52058       -5.16622
C         -5.49332       -3.57034       -4.53635
C         -6.67683       -2.97138       -4.85546
C         -7.04027       -2.17665       -6.11588
C         -7.57522       -3.17527       -7.18537
N         -7.96031       -2.55963       -8.45993
C         -8.04230       -1.00997       -5.87186
N         -8.37715       -0.16553       -7.02537
C         -7.55947       -3.30956       -3.72431
C         -8.79640       -2.92123       -3.38368
C         -9.50759       -3.39817       -2.12988
C         -8.68023       -4.33952       -1.27047
C         -7.44318       -4.74295       -1.60148
C         -6.86392       -4.21039       -2.80406
C         -5.63646       -4.37648       -3.30618
C         -4.55415       -5.19874       -2.83698
C         -3.38192       -5.12542       -3.48711
C        -10.82423       -4.00920       -2.53327
C        -11.00398       -5.30306       -2.84012
C        -12.33065       -5.77861       -3.26922
N        -13.47677       -5.23760       -2.94061
C        -14.38130       -6.04815       -3.54443
C        -13.71497       -7.11520       -4.24712
C        -14.72956       -7.95207       -4.93062
O        -14.57211       -8.93271       -5.62113
C        -15.99668       -7.28693       -4.54220
C        -15.69590       -6.15366       -3.70326
N        -16.84268       -5.52544       -3.33863
C        -17.76282       -6.24489       -3.92115
C        -17.30679       -7.39837       -4.72569
C        -12.39934       -7.01436       -4.10968
C        -11.31851       -7.74861       -4.68509
C        -11.15308       -9.07675       -4.56262
C        -10.07692       -9.80925       -5.17342
S         -8.90978       -9.01981       -6.18126
C         -8.04235      -10.45482       -6.57833
C         -8.63342      -11.53353       -5.94801
C         -9.77872      -11.16460       -5.12758
C        -10.53430      -12.10168       -4.39658
C        -10.06190      -13.42682       -4.55145
C        -10.77807      -14.50989       -3.83873
O        -10.42704      -15.68174       -3.90669
C         -8.94746      -13.78639       -5.36697
C         -8.19569      -12.85662       -6.10906
C         -6.93505      -10.29626       -7.46605
C         -5.81987      -11.03236       -7.39915
H         -1.82114        2.52830      -12.70080
H         -4.28437        2.95317      -11.64160
H         -6.55701        2.73297      -10.61816
H         -4.90303        0.90674       -7.82871
H         -2.63843       -0.03465       -7.77443
H          1.03718       -0.53689       -9.62593
H         -1.48577       -1.61397       -8.26508
H          6.19114       -5.16708       -6.13680
H          4.31752       -6.31337       -4.57533
H         -2.10464       -2.77476       -6.71764
H         -1.06826       -4.71988       -4.61556
H         -4.08031       -2.84102       -6.00040
H         -6.12107       -1.72361       -6.51378
H         -8.44210       -3.71234       -6.78260
H         -6.80747       -3.92468       -7.41084
H         -8.37386       -1.63624       -8.24442
H         -8.72568       -3.09154       -8.87240
H         -7.69073       -0.37406       -5.05263
H         -9.00754       -1.43011       -5.60119
H         -7.56274        0.36350       -7.34583
H         -9.05136        0.54419       -6.72987
H         -9.37969       -2.22978       -3.96554
H         -9.71597       -2.51149       -1.51724
H         -9.13069       -4.69194       -0.34728
H         -6.87825       -5.41976       -0.97241
H         -4.69530       -5.87794       -2.00517
H         -2.55522       -5.75407       -3.16049
H        -11.65776       -3.31336       -2.62524
H        -10.18772       -6.01560       -2.81026
H        -18.84180       -6.03920       -3.84421
H        -17.89183       -8.10175       -5.28259
H        -10.61858       -7.13056       -5.24281
H        -11.87689       -9.63863       -3.97765
H        -11.39236      -11.86125       -3.78357
H        -11.65180      -14.21170       -3.23741
H         -8.66181      -14.83807       -5.43207
H         -7.38107      -13.18021       -6.74178
H         -6.98501       -9.50189       -8.20944
H         -5.65843      -11.80223       -6.65406
H         -5.00976      -10.85568       -8.09982
