110

C         -6.97473       -1.41881        3.40439
S         -5.64388       -1.38984        4.47655
C         -5.74633        0.31648        4.75336
C         -6.80396        0.83538        4.01866
C         -7.53017       -0.17366        3.28225
C         -8.68592        0.05810        2.53043
C         -9.09135        1.41512        2.55165
C        -10.36054        1.76324        1.88356
C        -10.62852        2.95193        1.32656
C         -8.35358        2.42142        3.26557
C         -7.17830        2.18361        4.01613
C         -4.86838        0.96605        5.72625
N         -5.25558        2.06929        6.33618
C         -4.24464        2.36199        7.19400
C         -3.18423        1.39999        7.06630
C         -2.08465        1.76700        7.98584
O         -1.01123        1.23396        8.17854
C         -2.62236        2.97243        8.65653
C         -3.92651        3.26377        8.10576
N         -4.43423        4.36565        8.72484
C         -3.49348        4.68911        9.56956
C         -2.28450        3.84155        9.58975
C         -3.50260        0.47173        6.16994
C         -2.71920       -0.61704        5.68373
C         -1.80512       -1.28895        6.40366
C         -1.00897       -2.37514        5.85161
C          0.25654       -2.53452        6.31473
C          1.12224       -3.55245        5.74664
C          2.43091       -3.86698        5.95817
C          3.45965       -3.32184        6.95008
C          4.19937       -2.10427        6.33169
N          5.24224       -1.52674        7.18448
C          2.83301       -3.03193        8.34873
N          3.74009       -2.51432        9.37890
C          2.71393       -4.92709        4.97259
C          3.84909       -5.55014        4.62405
C          3.89464       -6.60837        3.52337
C          2.53956       -6.91229        2.88442
C          1.40840       -6.27763        3.22933
C          1.49594       -5.25833        4.23879
C          0.55777       -4.41958        4.68685
C         -0.81194       -4.27473        4.27214
C         -1.54636       -3.30685        4.84180
C          4.45515       -7.88100        4.08563
C          5.74651       -8.24606        4.06340
C          6.19254       -9.54751        4.61185
N          7.35230       -9.72580        5.19625
C          7.31056      -11.02660        5.58256
C          6.06856      -11.62902        5.18039
C          6.04199      -13.04841        5.59849
O          5.17139      -13.87619        5.44986
C          7.34482      -13.18745        6.27744
C          8.04759      -11.92696        6.22719
N          9.24667      -12.04752        6.85296
C          9.24464      -13.29049        7.25255
C          8.05844      -14.10272        6.92352
C          5.31218      -10.75784        4.53353
C          4.05812      -10.92995        3.87511
C          2.95097      -11.34067        4.51259
C          1.68089      -11.52483        3.87730
S          1.44235      -11.18084        2.18573
C         -0.18068      -11.70672        2.18847
C         -0.56875      -12.09970        3.43987
C          0.48885      -11.99425        4.41533
C          0.32615      -12.36881        5.75998
C         -0.97052      -12.86639        6.03785
C         -1.26304      -13.33376        7.39658
C         -1.07308      -14.61138        7.76022
C         -2.00776      -12.95638        5.04998
C         -1.85300      -12.57210        3.70065
H         -7.28751       -2.34992        2.95137
H         -9.23572       -0.71393        2.00590
H        -11.12203        0.98617        1.86243
H         -9.90684        3.76173        1.30081
H        -11.59506        3.14280        0.87110
H         -8.72677        3.44579        3.26421
H         -6.67620        2.98564        4.54156
H         -3.55577        5.54495       10.26067
H         -1.40396        3.92740       10.19908
H         -2.87352       -0.88463        4.64279
H         -1.58909       -1.01950        7.43551
H          0.64381       -1.84382        7.04902
H          4.20912       -4.10807        7.12381
H          3.47917       -1.31777        6.07947
H          4.68885       -2.41022        5.39958
H          4.81654       -1.34175        8.10599
H          5.52606       -0.61992        6.82017
H          2.36799       -3.94993        8.72820
H          2.05399       -2.27919        8.27665
H          4.50131       -3.17682        9.52735
H          3.23508       -2.43662       10.26125
H          4.79103       -5.30560        5.10332
H          4.54303       -6.24120        2.71762
H          2.49284       -7.68966        2.12504
H          0.45458       -6.51935        2.77328
H         -1.23054       -4.92176        3.51275
H         -2.58234       -3.18636        4.54332
H          3.71072       -8.51489        4.56001
H          6.52739       -7.57994        3.71243
H         10.06777      -13.75744        7.81362
H          7.84909      -15.12938        7.15540
H          4.05908      -10.66331        2.82184
H          3.01243      -11.55284        5.57762
H         -0.75014      -11.69908        1.26985
H          1.09261      -12.31418        6.52165
H         -1.64209      -12.59987        8.09804
H         -0.69243      -15.35694        7.06843
H         -1.29755      -14.93569        8.77120
H         -2.97743      -13.35334        5.35322
H         -2.64678      -12.65784        2.97188
