97

C          3.62999       -1.32136        2.39948
S          5.08219       -0.43924        2.69242
C          4.28049        0.74298        3.64951
C          4.98275        1.86428        4.32879
C          5.41134        1.49087        5.74232
C          2.94692        0.47668        3.70034
C          2.60140       -0.69462        3.02850
N          1.31031       -1.12311        3.07931
C          0.62942       -0.23118        3.82309
S          1.50972        1.24060        4.45800
C         -0.73729       -0.34303        4.22261
C         -1.26605       -1.55225        4.47995
C         -2.61877       -1.85304        4.95429
C         -2.91869       -3.13509        5.25697
C         -4.21549       -3.53675        5.73260
C         -5.33267       -2.59023        5.83793
C         -5.24098       -1.28619        5.58915
S         -3.76271       -0.51596        5.10671
C         -6.43823       -3.31781        6.31562
C         -6.06307       -4.61828        6.55161
C         -7.11329       -5.40855        7.04890
C         -8.27153       -4.64800        7.15230
S         -8.04197       -3.00113        6.65424
C         -4.66971       -4.74864        6.17104
C         -3.90380       -5.96423        6.32483
C         -3.30405       -6.75065        5.41071
C         -3.27540       -6.74101        3.92389
C         -2.16369       -7.22032        3.18738
C         -2.18915       -7.34581        1.74435
N         -1.10047       -7.83691        1.11748
C         -0.01939       -8.23649        1.82386
C          0.02447       -8.07492        3.18189
N         -1.04154       -7.57308        3.87008
C          1.20251       -8.37323        3.94065
N          2.18693       -8.59990        4.51309
C          1.01596       -8.87104        1.06199
N          1.84548       -9.41657        0.45921
C         -3.31013       -6.99563        0.94806
C         -4.45251       -6.53488        1.67331
C         -4.43350       -6.40296        3.17320
N         -5.61468       -5.98611        3.65549
S         -6.61974       -5.69841        2.38687
N         -5.64966       -6.19906        1.15650
C         -3.41179       -7.11412       -0.55467
C         -4.07880       -6.19777       -1.28469
C         -4.34183       -6.35144       -2.69729
C         -3.68480       -7.40148       -3.48058
C         -2.91520       -8.35729       -2.96701
S         -2.68461       -8.56607       -1.25870
C         -4.12551       -7.25207       -4.80801
C         -5.03751       -6.22487       -4.88094
C         -5.59362       -6.09931       -6.16726
C         -5.04476       -7.04046       -7.02707
S         -3.88001       -8.05708       -6.25057
C         -5.15279       -5.64507       -3.55165
C         -5.98691       -4.52056       -3.15969
C         -6.80614       -3.80144       -3.94489
C         -7.58077       -2.70286       -3.46644
S         -8.65852       -1.87504       -4.56263
C         -9.21910       -0.77779       -3.37288
C        -10.21078        0.29813       -3.64122
C        -11.64018       -0.17328       -3.41976
C         -8.61454       -1.03127       -2.18532
C         -7.69143       -2.07794       -2.25233
N         -6.99954       -2.38604       -1.11528
C         -7.41117       -1.55747       -0.14257
S         -8.70167       -0.33368       -0.53022
C         -6.91381       -1.53835        1.19565
C         -5.68758       -1.99792        1.47761
H          3.62172       -2.22724        1.81193
H          4.33800        2.75006        4.36956
H          5.86928        2.15758        3.75361
H          4.54784        1.24449        6.36966
H          5.94143        2.32646        6.21068
H          6.08186        0.62447        5.74100
H         -1.30174        0.57365        4.35271
H         -0.61635       -2.42081        4.35625
H         -2.17734       -3.92096        5.14876
H         -6.10416       -0.64043        5.71513
H         -7.06025       -6.45817        7.30507
H         -9.24925       -4.96542        7.48948
H         -3.81075       -6.26350        7.37136
H         -2.73986       -7.59004        5.82507
H         -4.49364       -5.30978       -0.81888
H         -2.46011       -9.10311       -3.61252
H         -6.35464       -5.40342       -6.48699
H         -5.27897       -7.19457       -8.07096
H         -5.92199       -4.25787       -2.10693
H         -6.91337       -4.04248       -4.99244
H        -10.10740        0.65878       -4.67219
H        -10.01452        1.16476       -2.99836
H        -11.88389       -1.02517       -4.06352
H        -12.34376        0.63428       -3.64674
H        -11.80099       -0.47958       -2.38070
H         -7.53780       -1.13498        1.98640
H         -5.02822       -2.38691        0.70621
H         -5.30944       -1.97707        2.49332
