142

C         -1.73830       -1.02005       -0.20579
C         -2.70093       -0.18323        0.35456
C         -2.46830        1.18421        0.51320
N         -3.51461        1.88537        1.10514
C         -4.50702        1.06787        1.36801
S         -4.27098       -0.57191        0.94540
C         -1.23139        1.69539        0.08067
C         -0.24793        0.85680       -0.45369
C         -0.49837       -0.51052       -0.61020
N          0.53165       -1.25281       -1.16291
C          1.55254       -0.46599       -1.41152
S          1.35895        1.18273       -1.00242
C         -0.95827        3.11973        0.27955
C         -1.28029        4.06318       -0.62262
C         -1.04436        5.50240       -0.40445
C         -0.78159        6.33907       -1.50385
C         -0.55360        7.69383       -1.27687
C         -0.61199        8.23241        0.02809
C         -0.89468        7.42352        1.11462
C         -1.12070        6.06525        0.88834
C         -0.34052        9.65017       -0.02271
C         -0.10502       10.02903       -1.35487
C         -0.21333        8.80782       -2.27806
C         -1.32833        8.99980       -3.34266
C         -2.74077        9.21782       -2.80102
C          1.13964        8.54785       -2.99757
C          2.33807        8.27703       -2.08705
C          0.20569       11.35061       -1.67973
C          0.26587       12.31734       -0.65948
C          0.00853       11.91364        0.66888
C         -0.28300       10.58371        0.99704
C          0.59209       13.73880       -0.98592
C          1.28741       14.48752       -0.08631
C          1.63451       15.86326       -0.39143
C          2.29774       16.80271        0.33274
C          2.85027       16.70888        1.73973
C          4.38209       16.94378        1.82153
N          5.15629       15.97272        1.04993
C          2.11610       17.65808        2.72563
N          0.69599       17.33117        2.88762
C          2.38165       17.96684       -0.55192
C          2.97880       19.16042       -0.41004
C          2.97429       20.20803       -1.51402
C          2.17355       19.80986       -2.74458
C          1.56699       18.61953       -2.88195
C          1.69206       17.67565       -1.80760
C          1.24923       16.41640       -1.70365
C          0.49961       15.61139       -2.63198
C          0.18644       14.35163       -2.27728
C          2.45844       21.51143       -0.96918
C          2.88385       22.71455       -1.38914
C          2.38310       23.99184       -0.85525
C          1.08957       24.11251       -0.33338
C          0.66709       25.34429        0.13364
C          1.51197       26.47551        0.07143
C          2.78733       26.36792       -0.44898
C          3.21914       25.12006       -0.91410
C          0.79327       27.62460        0.58236
C         -0.49758       27.23407        0.97207
C         -0.68732       25.73092        0.73197
C         -0.96331       24.99139        2.07206
C          0.13793       25.08572        3.12885
C         -1.84610       25.43061       -0.26276
C         -1.68806       25.99931       -1.67343
C         -1.40244       28.15375        1.50501
C         -1.06797       29.52273        1.62491
C          0.23860       29.87757        1.19788
C          1.17228       28.94471        0.70580
C         -2.05891       30.53306        2.14710
C         -1.68447       31.66704        2.92216
C         -2.63451       32.59226        3.38230
N         -2.12642       33.67353        4.10641
C         -0.82693       33.57785        4.20862
S         -0.13052       32.19295        3.51270
C         -3.99589       32.38266        3.09509
C         -4.39881       31.25813        2.36666
C         -3.45307       30.34577        1.87355
N         -4.01388       29.30019        1.13092
C         -5.31879       29.37924        1.11687
S         -5.98731       30.69225        1.95236
C         -4.94637       33.36922        3.65281
C         -6.10787       33.78773        3.13351
H         -1.93253       -2.08233       -0.32765
H         -5.42650        1.40707        1.82706
H          2.46891       -0.83774       -1.85103
H         -0.49345        3.36430        1.23000
H         -1.74070        3.79029       -1.56910
H         -0.74002        5.93843       -2.51170
H         -0.95163        7.82895        2.11577
H         -1.36465        5.44205        1.74595
H         -1.35854        8.12558       -4.00650
H         -1.07805        9.85806       -3.98103
H         -3.11978        8.32112       -2.30174
H         -3.42353        9.44491       -3.62693
H         -2.78669       10.05396       -2.09764
H          1.38593        9.41328       -3.62688
H          1.03890        7.69354       -3.67928
H          2.44880        9.03657       -1.30784
H          3.26008        8.27807       -2.67770
H          2.25720        7.29709       -1.60668
H          0.40262       11.60627       -2.71538
H          0.02948       12.63807        1.47981
H         -0.45877       10.30552        2.02887
H          1.63194       14.09042        0.86052
H          2.68092       15.69019        2.11584
H          4.70587       16.88722        2.86736
H          4.65297       17.94491        1.47726
H          4.95079       15.02890        1.37370
H          6.15176       16.12653        1.19755
H          2.20545       18.70267        2.40898
H          2.58205       17.58773        3.71559
H          0.23153       17.39882        1.97996
H          0.25149       18.02952        3.48259
H          3.51329       19.42480        0.49354
H          4.01849       20.33645       -1.83033
H          2.11300       20.53232       -3.55420
H          1.00991       18.36347       -3.77422
H          0.19156       16.02514       -3.58408
H         -0.39612       13.74719       -2.96553
H          1.70249       21.43390       -0.19211
H          3.63809       22.78359       -2.16918
H          0.40139       23.26505       -0.30640
H          3.44650       27.22847       -0.50683
H          4.22031       25.03655       -1.32935
H         -1.14225       23.92646        1.87497
H         -1.88934       25.37934        2.51757
H          1.07176       24.63403        2.78108
H         -0.16823       24.54506        4.03065
H          0.33879       26.12130        3.41834
H         -2.79168       25.80460        0.14977
H         -1.96661       24.34281       -0.36287
H         -1.57760       27.08700       -1.66421
H         -2.57494       25.75947       -2.26997
H         -0.82721       25.56589       -2.19201
H         -2.37831       27.78647        1.80843
H          0.56784       30.91217        1.21703
H          2.16517       29.26937        0.41262
H         -0.23472       34.32883        4.71657
H         -5.93801       28.65094        0.61027
H         -4.61767       33.84198        4.57979
H         -6.50479       33.43735        2.18881
H         -6.69849       34.53699        3.65371
