94

C         -2.89718       -9.84794        4.85975
S         -3.49916      -11.20730        5.71599
C         -2.05705      -12.10727        5.31855
C         -1.61566      -13.44740        5.53595
C         -0.36702      -13.66261        4.98502
C          0.36198      -14.92382        4.98101
O         -0.05575      -15.98050        5.43192
O          1.58905      -14.82961        4.40610
S          0.29545      -12.24948        4.26286
C         -1.15709      -11.35155        4.61669
C         -1.64015      -10.04022        4.33049
C         -0.95728       -9.09369        3.54135
C         -1.13408       -8.89862        2.07827
N         -0.43709       -7.94883        1.52099
C          0.25969       -7.43429        2.56748
C         -0.05762       -8.14213        3.79054
C          0.71605       -7.53245        4.91530
S          0.78069       -7.99861        6.50576
C          1.43138       -6.41321        4.22194
C          1.10729       -6.45002        2.81263
N          1.72602       -5.43384        2.14793
C          2.36943       -4.81807        3.10306
C          2.23453       -5.38640        4.47009
C          2.78237       -4.82728        5.66808
C          4.13179       -4.75603        5.79378
C          4.70250       -4.07483        6.93586
C          5.99607       -3.82658        7.25345
C          7.25612       -4.31763        6.57898
C          7.93625       -3.17237        5.79636
N          8.94415       -3.66616        4.85430
C          8.19358       -5.04460        7.58835
N          9.42816       -5.58282        7.00364
C          5.92274       -2.95834        8.42260
C          6.87193       -2.25320        9.05087
C          6.58934       -1.45026       10.31144
C          5.12440       -1.46448       10.73609
C          4.15925       -2.11041       10.05434
C          4.53876       -2.83589        8.87100
C          3.80525       -3.47821        7.95047
C          2.38045       -3.64505        7.82437
C          1.90996       -4.28429        6.73587
C          7.46650       -1.92982       11.44915
C          7.90246       -3.19205       11.57791
C          8.70439       -3.68653       12.63976
C          9.70799       -2.97061       13.46503
N         10.34210       -3.68126       14.35468
C          9.81623       -4.92214       14.18302
C          8.82737       -4.91456       13.13560
C          8.26619       -6.28806       12.96384
S          7.01917       -6.77532       11.97903
C          9.07863       -7.06982       13.95189
C          9.95163       -6.15244       14.66093
N         10.70085       -6.81046       15.58359
C         10.32144       -8.04880       15.43225
C          9.29676       -8.30641       14.39226
C          8.77755       -9.53936       13.95450
S          8.45916      -10.79861       15.09385
C          7.86316      -11.84275       13.83352
C          7.33225      -13.16643       13.77090
C          6.96204      -13.49483       12.48037
C          6.37233      -14.74878       12.04307
O          6.46421      -15.81527       12.63197
O          5.64305      -14.61475       10.90481
S          7.30444      -12.25506       11.34407
C          7.92869      -11.24261       12.61269
C          8.49385       -9.93772       12.66068
H         -3.52176       -8.96599        4.79422
H         -2.19049      -14.21296        6.04894
H          1.77428      -13.91937        4.10371
H         -1.83541       -9.54629        1.52904
H          2.97830       -3.91311        2.94832
H          4.80421       -5.13519        5.03121
H          6.96233       -5.07899        5.84264
H          8.41759       -2.46933        6.48379
H          7.18966       -2.61066        5.22338
H          9.57517       -4.28028        5.38735
H          9.52145       -2.88811        4.54024
H          7.64769       -5.87438        8.05467
H          8.49569       -4.37556        8.39770
H          9.18441       -6.27574        6.29393
H          9.94386       -6.08919        7.72410
H          7.90060       -2.26056        8.71021
H          6.85950       -0.40980       10.09112
H          4.85740       -0.90866       11.63112
H          3.12445       -2.09439       10.37607
H          1.71490       -3.24965        8.58200
H          0.83671       -4.40536        6.61364
H          7.70801       -1.18298       12.20196
H          7.60142       -3.93715       10.84333
H          9.88911       -1.90003       13.28603
H         10.73035       -8.88693       16.01644
H          7.20858      -13.82647       14.62239
H          5.63742      -13.69072       10.58655
H          8.65841       -9.33150       11.77874
