126

C         -6.60738        2.86212       -4.48160
C         -7.26018        2.79012       -3.26060
C         -6.57701        2.28090       -2.13801
N         -7.35656        2.32747       -0.91165
O         -7.19029        3.31629       -0.18478
O         -8.16707        1.41232       -0.72096
C         -5.24577        1.78123       -2.18292
C         -4.66147        1.82782       -3.46607
C         -5.30741        2.38937       -4.57987
C         -4.48787        1.20837       -1.01313
C         -3.10970        1.36374       -0.74435
C         -2.16300        1.86740       -1.75105
O         -1.59007        0.98786       -2.38983
C         -1.99501        3.29481       -2.01453
C         -2.35580        4.27758       -1.10695
S         -2.22446        5.85566       -1.73985
C         -1.64875        5.26348       -3.22687
C         -1.47204        3.88804       -3.24347
C         -0.95930        3.24817       -4.47155
O         -1.31769        3.66580       -5.57009
C          0.03531        2.13742       -4.43550
C          0.86900        1.88625       -3.34118
C          1.70288        0.76234       -3.33655
C          1.75346       -0.08007       -4.44807
C          0.98209        0.20249       -5.57034
C          0.12493        1.30654       -5.56709
C         -2.49727        0.79391        0.39708
C         -3.23893        0.04540        1.31201
C         -4.58742       -0.18579        1.07016
C         -5.16428        0.38642       -0.09272
C         -5.48383       -0.86824        2.04882
C         -6.55816       -1.53793        1.54933
C         -7.76889       -1.56825        2.34720
C         -9.05351       -1.77356        1.94797
C         -9.50810       -2.22719        0.57020
C         -9.56635       -3.77970        0.55530
N         -9.74743       -4.35894       -0.78214
C        -10.81098       -1.58534        0.03950
N        -11.00189       -1.75984       -1.40534
C         -9.84468       -1.27598        3.07750
C        -11.10549       -0.81762        3.14730
C        -11.59111       -0.00328        4.34118
C        -10.72089       -0.14325        5.57682
C         -9.45363       -0.58811        5.50850
C         -8.96584       -0.99579        4.21774
C         -7.71840       -1.10303        3.74516
C         -6.45114       -0.75670        4.33582
C         -5.39399       -0.62351        3.50884
C        -13.02764       -0.31654        4.62727
C        -13.93637        0.61606        4.96529
C        -15.34432        0.23958        5.08411
C        -16.07961        0.35238        6.26752
C        -15.53512        1.06574        7.44893
O        -15.75195        2.27274        7.52239
C        -14.70038        0.35851        8.43066
C        -13.96298       -0.77809        8.14360
S        -12.93501       -1.26035        9.41629
C        -13.52597       -0.02340       10.42594
C        -14.47859        0.77566        9.81178
C        -15.20998        1.83128       10.53286
O        -16.42468        1.96195       10.40655
C        -14.48825        2.67120       11.54204
C        -15.17865        3.10786       12.68357
C        -14.51848        3.85243       13.66447
C        -13.17189        4.18090       13.50596
C        -12.48396        3.77493       12.36022
C        -13.14303        3.02987       11.37197
C        -17.39930       -0.11372        6.29702
C        -17.97516       -0.70354        5.15327
C        -17.27150       -0.80271        3.93919
C        -15.96278       -0.29226        3.93645
C        -17.83594       -1.42012        2.70812
C        -16.99861       -2.06899        1.77627
C        -17.52497       -2.62030        0.60037
N        -16.61298       -3.23432       -0.35218
O        -15.61189       -2.58609       -0.67538
O        -16.90614       -4.36679       -0.76422
C        -18.88562       -2.57539        0.31526
C        -19.72852       -1.94486        1.22398
C        -19.20968       -1.37219        2.39860
H         -7.11120        3.27412       -5.35244
H         -8.28846        3.13715       -3.17842
H         -3.67769        1.40809       -3.65792
H         -4.78237        2.44142       -5.53273
H         -2.73048        4.15825       -0.09880
H         -1.44683        5.95285       -4.03793
H          0.84071        2.51538       -2.45535
H          2.29487        0.52764       -2.45545
H          2.39127       -0.96010       -4.43608
H          1.02937       -0.44208       -6.44499
H         -0.48870        1.50365       -6.44271
H         -1.42430        0.90240        0.55227
H         -2.74576       -0.37036        2.18705
H         -6.20505        0.15419       -0.29080
H         -6.65763       -1.77176        0.49618
H         -8.72578       -1.92854       -0.14083
H        -10.38122       -4.13187        1.19865
H         -8.63451       -4.18795        0.96623
H         -9.01942       -3.99733       -1.40106
H         -9.60004       -5.36702       -0.73239
H        -10.81640       -0.50955        0.24203
H        -11.67438       -2.04059        0.53748
H        -11.96031       -1.50593       -1.64367
H        -10.92870       -2.76694       -1.59787
H        -11.78104       -0.85958        2.30575
H        -11.53481        1.05155        4.03361
H        -11.11794        0.20467        6.52570
H         -8.81162       -0.63633        6.37899
H         -6.37726       -0.55876        5.39763
H         -4.43452       -0.32072        3.91502
H        -13.33005       -1.35368        4.48573
H        -13.67413        1.65722        5.13457
H        -13.92241       -1.33767        7.22043
H        -13.15938        0.04111       11.44252
H        -16.22878        2.85687       12.81913
H        -15.05737        4.18141       14.54967
H        -12.65841        4.75620       14.26840
H        -11.44017        4.04074       12.23269
H        -12.59316        2.74080       10.48448
H        -17.99034       -0.01493        7.20614
H        -18.99287       -1.08149        5.23215
H        -15.38817       -0.29458        3.00963
H        -15.92958       -2.15697        1.95733
H        -19.28469       -3.00768       -0.59980
H        -20.79556       -1.88355        1.01888
H        -19.90593       -0.86422        3.06518
