106

C          4.94029      -11.29256       10.04315
C          6.04519      -12.07219        9.82310
C          6.64163      -11.81760        8.53583
N          7.76539      -12.46833        8.12229
C          8.13858      -13.44437        9.00985
C          7.57070      -13.73088       10.27248
C          6.48547      -12.99883       10.76574
C          5.94874      -10.89256        7.77023
S          4.50284      -10.44669        8.61956
C          6.22532      -10.36390        6.41148
C          5.96544       -9.04186        6.01609
C          5.44103       -7.85947        6.72007
O          5.42189       -7.72094        7.92900
N          5.11205       -6.92063        5.76469
C          5.61475       -7.27101        4.54412
O          5.62131       -6.69726        3.47125
C          6.19547       -8.59595        4.71041
C          6.83966       -9.34335        3.75170
C          7.16458      -10.62735        4.14216
C          6.79574      -11.15468        5.39209
C          6.94649      -12.61904        5.34702
O          6.21719      -13.40640        5.91699
S          8.08226      -13.10227        4.09783
C          7.88525      -11.57072        3.29263
O          8.30955      -11.29744        2.18475
C          4.42914       -5.77321        6.08685
C          4.03711       -4.81085        5.23946
C          3.26464       -3.62371        5.60258
C          2.96305       -3.35856        6.90119
C          2.04478       -2.29725        7.22458
C          1.48423       -1.96850        8.41463
C          1.80723       -2.48576        9.80594
C          2.20328       -1.29411       10.72271
N          2.64091       -1.66828       12.07139
C          0.69778       -3.36488       10.43095
N          0.38611       -4.55984        9.64260
C          0.41440       -1.04983        8.03950
C         -0.69440       -0.68883        8.69632
C         -1.81856        0.06111        8.00429
C         -1.44619        0.63396        6.64375
C         -0.32710        0.27396        5.98884
C          0.52798       -0.68690        6.62913
C          1.48709       -1.47644        6.13405
C          1.95727       -1.65831        4.78681
C          2.78392       -2.69438        4.54521
C         -2.32742        1.12400        8.93164
C         -3.36519        0.89951        9.75204
C         -3.80275        1.91338       10.69356
C         -3.24367        2.01410       11.96722
C         -2.23809        1.19634       12.66596
O         -1.71942        0.19780       12.19600
N         -2.03988        1.76759       13.90933
C         -2.85006        2.86852       14.07226
O         -2.98742        3.63398       15.00779
C         -3.61536        3.02315       12.84310
C         -4.56142        3.98002       12.52480
C         -5.12980        3.87569       11.25888
C         -4.76758        2.87185       10.35810
C         -5.51218        2.97783        9.09564
O         -5.41723        2.21435        8.14934
S         -6.60496        4.34896        9.10628
C         -6.13950        4.78316       10.73338
O         -6.59471        5.71536       11.35781
C         -1.14955        1.24372       14.82938
C         -0.88525        1.74351       16.05085
C          0.03074        1.15782       16.99120
C          0.37343        1.58096       18.27514
C          1.30879        0.69389       18.92338
N          1.77847        0.88250       20.18244
C          1.26131        2.00838       20.75311
C          0.35181        2.92025       20.17689
C         -0.14482        2.73883       18.87717
C          1.68166       -0.36276       18.14361
S          0.91194       -0.30382       16.62499
H          4.32168      -11.22321       10.92819
H          8.96508      -14.06121        8.65713
H          7.98257      -14.54436       10.86538
H          6.02987      -13.18611       11.72873
H          7.04884       -8.95453        2.75999
H          4.18359       -5.71729        7.14400
H          4.24327       -4.90252        4.17506
H          3.27568       -3.98224        7.72773
H          2.70188       -3.12090        9.73694
H          1.37304       -0.58659       10.81830
H          3.03392       -0.74990       10.25508
H          1.89256       -2.15052       12.56624
H          2.81693       -0.81914       12.60909
H         -0.22006       -2.79320       10.58589
H          1.00824       -3.71178       11.42193
H          0.14827       -4.28614        8.68950
H         -0.44397       -5.00536       10.03078
H         -0.88428       -1.01550        9.71094
H         -2.62238       -0.66680        7.81907
H         -2.14705        1.31532        6.17014
H         -0.07726        0.66282        5.00912
H          1.62071       -0.99950        3.99593
H          3.12059       -2.87876        3.52825
H         -1.77840        2.06222        8.94895
H         -3.89368       -0.05069        9.75887
H         -4.84110        4.76341       13.22379
H         -0.64993        0.34413       14.47331
H         -1.39255        2.64613       16.37735
H          1.61739        2.18455       21.76799
H          0.03155        3.78039       20.76019
H         -0.84198        3.43407       18.42918
H          2.36611       -1.15922       18.39415
