104

C         -1.92282        4.69131       -6.05419
C         -2.74637        5.71912       -5.84618
C         -3.99900        6.02093       -6.50237
C         -4.66138        7.13655       -6.13328
C         -4.14224        8.04011       -5.10846
C         -2.97822        7.80472       -4.47196
C         -2.23594        6.60123       -4.80405
C         -1.08736        6.13116       -4.30238
C         -0.81714        4.90795       -5.10527
O          0.16201        4.19004       -5.00964
C         -0.19821        6.65560       -3.30190
C         -0.61847        7.26598       -2.18470
C          0.22113        7.83815       -1.18714
C          1.59109        8.39432       -1.33496
N          2.12998        8.91135       -0.26494
C          1.16218        8.75698        0.66977
C         -0.00249        8.11736        0.09705
C         -1.05369        7.96717        1.14991
S         -2.55515        7.26711        1.03356
C         -0.38302        8.58223        2.33433
C          0.94803        9.01078        1.95771
N          1.60062        9.54648        3.01716
C          0.72098        9.44833        3.97551
C         -0.59438        8.85595        3.62069
C         -1.70112        8.62981        4.50801
C         -2.91177        9.18424        4.22256
C         -4.06845        8.86865        5.04430
C         -5.38042        9.21714        4.92841
C         -6.03196       10.22520        3.98323
C         -6.50593        9.53157        2.67842
N         -7.09587       10.43330        1.68060
C         -7.18483       11.06801        4.61164
N         -6.82379       11.83075        5.80669
C         -6.05014        8.45745        5.99154
C         -7.34619        8.20562        6.23495
C         -7.81980        7.43210        7.45731
C         -6.68763        6.88173        8.31357
C         -5.38629        7.04434        8.01427
C         -5.05359        7.80017        6.83569
C         -3.87521        8.00169        6.23042
C         -2.56330        7.49816        6.55192
C         -1.54550        7.78985        5.71974
C         -8.71331        8.33321        8.28583
C        -10.00314        8.06741        8.55120
C        -10.89210        8.89070        9.31552
C        -10.60780       10.19137        9.98207
N        -11.58132       10.73406       10.65795
C        -12.58916        9.83970       10.49875
C        -12.17372        8.74018        9.66245
C        -13.33355        7.80229        9.49417
S        -13.44173        6.48906        8.48165
C        -14.37409        8.41056       10.39785
C        -13.83720        9.65765       10.91162
N        -14.73782       10.29008       11.70194
C        -15.75293        9.47534       11.68353
C        -15.59480        8.21606       10.89716
C        -16.59656        7.20850       10.81861
C        -16.55662        5.86958       10.88328
C        -15.42377        4.97734       11.02832
C        -15.63871        3.64680       11.05098
C        -16.98372        3.08051       11.00198
C        -18.08003        3.85843       10.92139
C        -17.90348        5.29744       10.84867
C        -18.83401        6.25376       10.78825
C        -18.05781        7.51723       10.79931
O        -18.53220        8.63595       10.80737
C        -20.26749        6.18027       10.78891
C        -20.98437        5.49845        9.88663
H         -1.99069        3.86860       -6.74068
H         -4.38559        5.35942       -7.26861
H         -5.60553        7.40433       -6.59806
H         -4.72482        8.92696       -4.87472
H         -2.60522        8.50174       -3.73262
H          0.86118        6.48620       -3.48756
H         -1.68569        7.34149       -1.98593
H          2.08165        8.37083       -2.32078
H          0.90277        9.78022        5.00808
H         -3.06416        9.81141        3.35025
H         -5.25638       10.95162        3.69819
H         -7.23226        8.74516        2.90989
H         -5.64585        9.04903        2.20010
H         -7.91245       10.91278        2.05683
H         -7.44630        9.88294        0.89617
H         -8.04602       10.43414        4.83673
H         -7.55544       11.79988        3.88707
H         -6.23476       11.27142        6.42044
H         -7.67029       12.04877        6.33168
H         -8.12219        8.52856        5.55406
H         -8.39144        6.56742        7.09535
H         -6.96177        6.29958        9.18950
H         -4.60279        6.61624        8.62870
H         -2.41943        6.86920        7.42263
H         -0.55976        7.37849        5.92611
H         -8.24246        9.24463        8.64972
H        -10.42553        7.14049        8.16754
H         -9.61245       10.64905        9.88796
H        -16.69083        9.66841       12.22663
H        -14.41874        5.36999       11.11193
H        -14.80635        2.95386       11.12812
H        -17.07519        1.99980       11.06119
H        -19.07657        3.43067       10.92186
H        -20.77785        6.74809       11.56498
H        -20.51596        4.95803        9.06916
H        -22.06892        5.48925        9.93360
