116

C        -12.13639       -1.40510        1.52599
S        -11.30074        0.02552        1.20137
C        -11.72389        0.71574        2.72436
C        -12.49449       -0.17284        3.46957
C        -12.73615       -1.39948        2.76402
O        -13.44716       -2.50793        3.09647
C        -14.08770       -2.48987        4.36221
C        -12.94775        0.17713        4.78018
N        -13.31165        0.48868        5.84834
C        -11.30013        2.02360        3.10605
C        -10.64981        2.85933        2.28545
C        -10.23553        4.18256        2.65795
C        -10.96584        4.92662        3.52057
C        -10.51426        6.28794        3.51037
C        -11.10247        7.29902        4.30254
N        -11.61952        8.05990        5.00867
C         -9.55273        6.41890        2.58632
C         -9.21139        5.08458        2.06200
C         -8.16764        4.73697        1.26040
C         -7.09786        5.58777        0.67028
C         -6.36056        4.79892       -0.14056
C         -6.82760        3.43815       -0.06278
C         -7.86622        3.37547        0.78385
C         -6.23931        2.35756       -0.76304
N         -5.75328        1.48133       -1.34771
C         -6.79557        6.98936        0.74782
C         -6.86957        7.68732        1.88266
C         -6.73101        9.12279        2.00057
C         -6.65169        9.60632        3.26158
C         -6.33948       10.99691        3.50715
C         -5.98605       11.67952        4.63645
C         -5.76652       11.22427        6.08909
C         -6.73792       11.87042        7.13559
N         -6.57712       13.30528        7.35918
C         -5.85042        9.68015        6.33287
N         -4.79650        8.89465        5.67983
C         -5.74877       13.05638        4.14483
C         -5.39686       14.20275        4.74884
C         -5.40397       15.54692        4.04032
C         -5.46280       15.43684        2.52742
C         -5.74301       14.28698        1.89568
C         -5.96014       13.11717        2.70112
C         -6.29615       11.88301        2.32532
C         -6.56846       11.37575        1.00597
C         -6.77966       10.05729        0.86447
C         -6.55184       16.38665        4.56766
C         -7.79353       16.42755        4.04817
C         -8.86130       17.21897        4.60181
C         -8.76218       18.56417        4.70148
C         -9.98637       19.11271        5.24156
C        -10.16635       20.48144        5.54623
N        -10.30023       21.61029        5.77949
C        -10.87310       18.12363        5.44301
C        -10.25686       16.87709        4.98736
C        -10.86323       15.67166        4.92852
C        -12.31887       15.35014        5.06005
C        -12.38793       14.00111        4.89626
C        -11.06416       13.42424        4.73417
C        -10.15802       14.40767        4.72262
C        -10.76785       12.04727        4.57870
N        -10.48884       10.92586        4.44280
C        -13.51258       16.21033        4.97804
C        -14.75001       15.83728        5.35925
C        -15.98637       16.51731        5.05016
S        -17.36088       15.46012        4.86775
C        -18.44382       16.70970        4.43371
C        -17.81045       17.93675        4.52409
C        -16.39179       17.83825        4.82768
O        -15.49458       18.86612        4.94594
C        -15.85705       20.06344        4.25113
C        -18.56685       19.14011        4.30922
N        -19.17132       20.10523        4.07782
C        -19.79547       16.37067        4.10312
C        -20.53142       17.08248        3.23661
H        -12.15447       -2.19741        0.79140
H        -14.65553       -3.41805        4.46491
H        -14.80261       -1.66341        4.42837
H        -13.35094       -2.46128        5.17222
H        -11.53725        2.35029        4.11803
H        -10.43372        2.58616        1.26001
H        -11.86097        4.62567        4.04750
H         -9.15752        7.37445        2.30720
H         -5.51171        5.10654       -0.73637
H         -8.36190        2.45931        1.05037
H         -6.46375        7.46647       -0.17047
H         -7.08897        7.15438        2.80708
H         -6.76252        8.92364        4.08658
H         -4.74290       11.51445        6.36783
H         -6.56313       11.40492        8.11374
H         -7.77870       11.66640        6.86314
H         -5.60519       13.49682        7.59789
H         -7.13311       13.61614        8.15212
H         -6.84683        9.31531        6.05396
H         -5.76298        9.46031        7.40262
H         -4.69438        9.17371        4.70321
H         -5.06185        7.90976        5.66575
H         -5.14859       14.24657        5.79404
H         -4.46224       16.05094        4.29010
H         -5.31319       16.34680        1.95610
H         -5.81142       14.23123        0.81752
H         -6.61575       12.04774        0.15969
H         -7.03944        9.66746       -0.11393
H         -6.33624       16.95187        5.47247
H         -8.05009       15.82497        3.17876
H         -7.90593       19.15986        4.41619
H        -11.83102       18.22117        5.92716
H        -13.28486       13.40796        4.77947
H         -9.09074       14.25148        4.64360
H        -13.36389       17.16416        4.48117
H        -14.85853       14.86293        5.83714
H        -15.05088       20.79604        4.32622
H        -16.71594       20.55398        4.71599
H        -16.03522       19.85480        3.18889
H        -20.24563       15.49783        4.57120
H        -20.16403       17.94453        2.68764
H        -21.56595       16.82017        3.03892
