114

C         -1.46577        4.05916      -16.96327
S         -1.87670        2.62647      -16.14399
C         -1.51074        3.30673      -14.60349
C         -1.10969        4.64028      -14.73466
C         -1.09418        5.06621      -16.10868
O         -0.72951        6.25406      -16.66744
C         -0.96104        7.40523      -15.87162
C         -0.74277        5.43560      -13.59369
N         -0.46851        6.12237      -12.69148
C         -1.63951        2.54189      -13.39856
C         -1.31070        1.24083      -13.30782
C         -1.22998        0.47918      -12.04422
C         -0.69198        1.00676      -10.86044
C         -0.09769        2.32213      -10.51469
O          0.09853        3.21985      -11.30373
N          0.21970        2.29834       -9.17602
C         -0.00372        1.05494       -8.64497
O          0.21131        0.58800       -7.54471
C         -0.58762        0.24553       -9.70087
C         -0.97359       -1.07535       -9.61738
C         -1.48368       -1.61992      -10.78341
C         -1.60585       -0.88272      -11.97158
C         -2.13961       -1.73417      -13.05150
O         -2.30637       -1.38610      -14.20467
S         -2.49355       -3.36110      -12.49450
C         -1.92866       -3.00430      -10.88880
O         -1.90403       -3.79419       -9.96295
C          0.75156        3.39089       -8.52044
C          1.14509        3.40327       -7.23805
C          1.72470        4.55776       -6.57941
C          2.99006        4.43028       -6.10791
C          3.60851        5.51324       -5.37044
C          4.85293        5.65191       -4.83513
C          6.12257        4.81301       -4.98155
C          6.28392        3.67558       -3.93374
N          5.25980        2.63239       -3.87924
C          6.39947        4.33603       -6.44250
N          7.61491        3.52485       -6.60279
C          4.77532        6.91631       -4.07326
C          5.63205        7.50660       -3.22101
C          5.29051        8.79483       -2.46261
C          3.93780        9.39394       -2.84913
C          3.08839        8.80852       -3.71361
C          3.47123        7.54551       -4.28851
C          2.78141        6.70828       -5.07402
C          1.45609        6.83072       -5.63527
C          0.97264        5.80764       -6.36543
C          6.40395        9.81697       -2.63303
C          7.42582        9.96478       -1.76687
C          8.51570       10.92892       -1.96811
C          9.69040       10.58923       -2.65013
C         10.21606        9.30019       -3.14588
O          9.65819        8.23168       -2.97568
N         11.40538        9.57189       -3.79462
C         11.70958       10.90782       -3.74380
O         12.65875       11.51880       -4.19665
C         10.66776       11.53893       -2.94403
C         10.61686       12.84115       -2.49260
C          9.49034       13.17065       -1.75261
C          8.45130       12.25876       -1.50904
C          7.37871       12.88130       -0.71630
O          6.36038       12.32653       -0.34933
S          7.74560       14.55404       -0.32565
C          9.27669       14.48194       -1.15174
O         10.07997       15.39441       -1.21876
C         12.22378        8.66222       -4.42920
C         12.58824        7.47108       -3.91833
C         13.41851        6.51775       -4.61053
S         13.80857        6.72819       -6.27635
C         14.66969        5.25708       -6.39680
C         14.66073        4.58776       -5.18683
C         13.98778        5.32858       -4.14143
O         13.80553        4.97857       -2.83178
C         14.75604        4.05312       -2.30573
C         15.25058        3.28076       -5.05985
N         15.75519        2.24673       -4.95021
C         15.21070        4.92453       -7.67524
C         16.33660        4.21720       -7.83056
H         -1.53142        4.09943      -18.04373
H         -0.82418        8.28540      -16.50668
H         -0.22330        7.48069      -15.07015
H         -1.98513        7.42604      -15.48285
H         -1.91067        3.10463      -12.50866
H         -1.04278        0.68255      -14.20360
H         -0.86652       -1.64772       -8.69995
H          0.84840        4.28810       -9.12869
H          1.07837        2.52102       -6.60748
H          3.51899        3.49395       -6.21791
H          6.95949        5.49811       -4.77784
H          6.36441        4.11837       -2.93556
H          7.24808        3.17784       -4.10050
H          4.61051        2.72446       -4.65135
H          5.70642        1.72291       -4.00308
H          6.50528        5.21981       -7.08440
H          5.57179        3.74882       -6.84359
H          8.40063        3.95593       -6.11803
H          7.87329        3.48330       -7.58878
H          6.58649        7.04668       -2.98773
H          5.20885        8.53119       -1.39836
H          3.63622       10.31861       -2.36141
H          2.12310        9.24215       -3.94971
H          0.87478        7.73110       -5.47761
H         -0.02332        5.87237       -6.79485
H          6.34317       10.43373       -3.52723
H          7.48890        9.34423       -0.87518
H         11.41957       13.54806       -2.68385
H         12.61340        9.03428       -5.37547
H         12.28594        7.22122       -2.90297
H         14.65301        4.01528       -1.21783
H         15.78338        4.36337       -2.53101
H         14.55407        3.03873       -2.66300
H         14.69475        5.28387       -8.56453
H         16.94328        3.85242       -7.00799
H         16.69979        3.98707       -8.82626
