104

C          8.13719       10.18642        1.28851
S          6.60873        9.76625        0.66382
C          6.74385        8.12509        1.18894
C          8.00189        7.89754        1.74034
C          8.79731        9.10202        1.81923
C         10.17115        9.13977        2.42382
C         10.81607        7.75294        2.43379
C          9.86504        6.68772        2.99297
O          9.59039        6.96396        4.36802
C          8.55437        6.56496        2.18673
C          5.67004        7.25161        0.91944
C          5.42651        6.49951       -0.33387
N          4.28719        5.87261       -0.42671
C          3.68161        6.17327        0.75298
C          4.54845        6.98138        1.59288
C          3.82007        7.25639        2.87817
S          4.41366        7.90937        4.28412
C          2.45714        6.67995        2.60714
C          2.49214        6.01591        1.32264
N          1.27914        5.48038        1.01967
C          0.54898        5.82960        2.04122
C          1.22544        6.61174        3.11237
C          0.57706        7.17097        4.27171
C          1.06230        6.90379        5.51622
C          0.45843        7.52214        6.68611
C          0.79135        7.48731        8.00726
C          1.89262        6.72364        8.73818
C          2.88609        7.69362        9.44089
N          3.97549        7.04179       10.17509
C          1.29023        5.64883        9.70087
N          2.28718        4.83401       10.41500
C         -0.17906        8.38336        8.64949
C         -0.27065        8.84582        9.90479
C         -1.41639        9.72396       10.38143
C         -2.37374       10.13288        9.26839
C         -2.24928        9.72518        7.99341
C         -1.14844        8.85949        7.66760
C         -0.74021        8.37333        6.48866
C         -1.26722        8.59200        5.16627
C         -0.62578        8.03079        4.12396
C         -2.19451        9.05956       11.49886
C         -1.99713        7.84769       12.03477
C         -2.79578        7.25553       13.06091
C         -2.27588        6.25766       14.03392
N         -3.14050        5.73695       14.85310
C         -4.29870        6.33073       14.48683
C         -4.09008        7.27110       13.40295
C         -5.42433        7.87991       13.03872
S         -5.82153        9.08482       11.96573
C         -6.35102        7.16032       13.96430
C         -5.58358        6.27324       14.80794
N         -6.39673        5.59802       15.66329
C         -7.58104        6.04022       15.32849
C         -7.64102        7.03852       14.26005
C         -8.78088        7.61588       13.67845
S         -9.54453        6.80580       12.36612
C        -10.77737        7.97621       12.25323
C        -10.63681        8.97690       13.18894
C         -9.46486        8.77879       14.00705
C         -9.07957        9.77101       15.07030
C        -10.27151       10.63424       15.50251
C        -11.02537       11.22018       14.30194
O        -10.16596       12.09884       13.57188
C        -11.59355       10.12518       13.38188
H          8.49477       11.20679        1.22470
H         10.09537        9.52269        3.44969
H         10.81464        9.83529        1.87169
H         11.73128        7.79692        3.03672
H         11.10908        7.47777        1.41269
H         10.37491        5.71797        2.97792
H          8.94128        7.68925        4.41129
H          7.80054        6.03736        2.78141
H          8.75572        5.97625        1.28284
H          6.19484        6.48991       -1.12092
H         -0.51710        5.57363        2.14867
H          1.91785        6.25678        5.66648
H          2.47287        6.16891        7.98773
H          2.36937        8.32279       10.16450
H          3.32774        8.36662        8.69886
H          3.56612        6.24410       10.68488
H          4.29946        7.66979       10.91075
H          0.65169        4.96607        9.12792
H          0.65858        6.11917       10.46053
H          3.01085        4.52930        9.75811
H          1.85372        3.98103       10.76935
H          0.45816        8.59429       10.66208
H         -0.97921       10.64830       10.78343
H         -3.19356       10.79620        9.53342
H         -2.95132       10.03580        7.22910
H         -2.14008        9.21965        5.02637
H         -0.99551        8.22063        3.11824
H         -3.00290        9.67629       11.88056
H         -1.16774        7.22586       11.69892
H         -1.20373        6.00593       14.03072
H         -8.51318        5.71091       15.83228
H        -11.55774        7.86923       11.51125
H         -8.28724       10.41547       14.66940
H         -8.66795        9.25863       15.94682
H         -9.90256       11.44342       16.14327
H        -10.96497       10.02997       16.10158
H        -11.85356       11.83982       14.66429
H         -9.56878       11.55540       13.02639
H        -11.85440       10.55315       12.40654
H        -12.51044        9.72301       13.83141
