126

C          1.57083       -0.99226       -0.72338
S          1.34764        0.52743       -1.45532
C          0.54301        1.19058       -0.06787
C          0.45512        0.22390        0.93278
C          1.04462       -1.02247        0.54739
N          1.11099       -2.20385        1.35770
O          0.64952       -3.23896        0.86520
O          1.64026       -2.08216        2.46607
C         -0.17315        0.42561        2.20622
N         -0.72048        0.56831        3.21864
C          0.05724        2.59749       -0.13087
C          0.74224        3.57421       -0.88262
C          0.24680        4.87678       -0.94329
C         -0.91637        5.25205       -0.24539
C         -1.59792        4.31554        0.50739
C         -1.11562        2.99587        0.55230
C         -1.18245        6.65969       -0.47350
C         -0.19588        7.18596       -1.33350
C          0.82180        6.09020       -1.68724
C          0.88660        5.86211       -3.22192
C         -0.42376        5.43013       -3.88193
C          2.23522        6.44737       -1.14492
C          2.33892        6.61911        0.37323
C         -0.22187        8.52133       -1.73673
C         -1.23280        9.36124       -1.24106
C         -2.20457        8.83125       -0.36689
C         -2.18797        7.47887        0.01232
C         -1.27235       10.79274       -1.63290
C         -0.60856       11.68122       -0.85259
C         -0.56180       13.08376       -1.23535
C          0.07249       14.14532       -0.67379
C          0.92750       14.22892        0.57043
C          0.16445       13.81528        1.85861
N         -1.01038       14.64663        2.12772
C          2.22670       13.39555        0.42690
N          3.09516       13.87555       -0.65288
C         -0.18801       15.26928       -1.57754
C          0.30011       16.52078       -1.60538
C         -0.05819       17.51571       -2.70623
C         -1.09679       16.98805       -3.69374
C         -1.56752       15.72653       -3.67190
C         -1.07837       14.83508       -2.65157
C         -1.27456       13.52010       -2.45949
C         -2.00602       12.54757       -3.23606
C         -1.98855       11.25658       -2.83963
C         -0.51048       18.82109       -2.08876
C          0.31813       19.85191       -1.84439
C         -0.11022       21.06631       -1.14378
C         -0.54410       22.19151       -1.85904
C         -0.89573       23.33842       -1.14940
C         -0.86362       23.35670        0.26228
C         -0.43676       22.24729        0.97335
C         -0.05158       21.10411        0.26400
C         -1.29068       24.65542        0.73324
C         -1.53152       25.49366       -0.36781
C         -1.33644       24.71972       -1.68297
C         -2.68725       24.53772       -2.44032
C         -3.39709       25.80883       -2.90045
C         -0.24729       25.36272       -2.58220
C          1.15429       25.45104       -1.97326
C         -1.88031       26.82966       -0.18010
C         -2.08562       27.33606        1.11887
C         -1.89267       26.45498        2.20584
C         -1.47345       25.12772        2.02004
C         -2.50584       28.74839        1.32917
S         -3.52892       29.49620        0.14126
C         -3.59339       30.97481        0.98257
C         -2.89206       30.92526        2.16481
C         -2.26469       29.65316        2.36036
N         -1.46267       29.35933        3.51082
O         -0.28216       29.05640        3.30963
O         -2.02811       29.44354        4.60568
C         -2.80667       32.05409        3.04949
N         -2.73731       32.97668        3.74244
H          2.07665       -1.78911       -1.25501
H          1.65803        3.33867       -1.41770
H         -2.49572        4.58250        1.05590
H         -1.69953        2.28544        1.13243
H          1.64334        5.10082       -3.45201
H          1.22213        6.78471       -3.71393
H         -0.75477        4.45288       -3.51767
H         -0.28453        5.34488       -4.96483
H         -1.22592        6.15381       -3.71016
H          2.58371        7.37554       -1.61549
H          2.95021        5.66683       -1.43762
H          1.61672        7.34597        0.75579
H          3.33873        6.97542        0.64140
H          2.18298        5.66980        0.89587
H          0.53039        8.90757       -2.41797
H         -2.98561        9.47818        0.02881
H         -2.94896        7.09171        0.68223
H         -0.08873       11.36126        0.04232
H          1.23769       15.27090        0.72817
H          0.83821       13.89308        2.72024
H         -0.15762       12.77068        1.81052
H         -0.74174       15.62859        2.16698
H         -1.40549       14.41028        3.03599
H          1.99785       12.33981        0.24861
H          2.79841       13.43979        1.36047
H          2.57842       13.84294       -1.53439
H          3.88073       13.23673       -0.76606
H          1.01418       16.85639       -0.86129
H          0.85536       17.69655       -3.29137
H         -1.44854       17.67132       -4.46216
H         -2.30145       15.37763       -4.38775
H         -2.53511       12.86120       -4.12741
H         -2.51437       10.50534       -3.42195
H         -1.55586       18.88400       -1.79238
H          1.37470       19.80007       -2.09623
H         -0.59145       22.17122       -2.94309
H         -0.38272       22.26032        2.05676
H          0.30363       20.23687        0.81761
H         -3.39438       23.97789       -1.81213
H         -2.52030       23.91429       -3.32914
H         -3.76838       26.39264       -2.05429
H         -4.27540       25.54905       -3.50116
H         -2.75139       26.44280       -3.51329
H         -0.54627       26.38084       -2.85946
H         -0.16638       24.79852       -3.52028
H          1.16109       26.02967       -1.04488
H          1.83229       25.94834       -2.67551
H          1.57151       24.46053       -1.76833
H         -1.99834       27.46569       -1.05218
H         -2.06332       26.77417        3.23098
H         -1.30878       24.48512        2.87936
H         -4.14993       31.80765        0.57053
