134

C          6.10351        5.58757       -1.76530
N          6.88376        4.96884       -2.68577
C          7.61815        5.65617       -3.72670
C          8.66296        4.81553       -4.43259
N          6.90520        3.63355       -2.55747
C          6.14445        3.38777       -1.47848
C          5.61412        4.60026       -0.94401
C          4.65647        4.81323        0.15969
C          5.06739        5.86090        1.17835
C          5.91445        1.96510       -1.03484
C          7.15736        1.07778       -1.20357
C          7.01280       -0.30647       -0.62076
C          6.77187       -1.40356       -1.35284
C          6.72901       -2.82588       -0.92587
N          6.38512       -3.75283       -1.80102
C          6.53799       -4.91416       -1.11983
C          6.98114       -4.64658        0.22179
C          7.18069       -5.94231        0.92689
O          7.56229       -6.14988        2.05727
C          6.83532       -6.92845       -0.12614
C          6.45829       -6.22503       -1.32743
N          6.17657       -7.11324       -2.31192
C          6.36550       -8.26653       -1.73026
C          6.79029       -8.24127       -0.31549
C          7.12448       -3.34013        0.43219
C          7.62797       -2.70039        1.61240
C          6.88495       -1.93955        2.42579
C          7.32837       -1.33623        3.68191
C          6.43921       -1.38353        4.70031
C          6.65611       -0.62810        5.91688
C          5.82420       -0.45267        6.96977
C          4.61790       -1.24858        7.40453
C          3.28473       -0.80377        6.75030
N          3.19968       -0.80311        5.29348
C          4.82572       -2.79745        7.50056
N          5.10641       -3.58728        6.30278
C          6.25388        0.82723        7.55202
C          5.62081        1.66240        8.39958
C          6.10921        3.09711        8.68271
C          7.44190        3.40098        7.99168
C          8.11028        2.53168        7.20293
C          7.49817        1.25921        6.90690
C          7.77415        0.33234        5.96694
C          8.81259        0.21556        4.95653
C          8.58186       -0.56683        3.87304
C          5.02200        4.10326        8.28136
C          4.75722        5.31651        8.81912
C          3.64981        6.27259        8.43032
N          3.29103        7.32661        9.14351
C          2.26756        7.89578        8.42572
C          2.04834        7.13997        7.22667
C          0.95670        7.73306        6.42702
O          0.49401        7.39592        5.36067
C          0.55046        8.86684        7.27947
C          1.38227        8.89644        8.45832
N          0.98816        9.93394        9.25170
C          0.00196       10.46336        8.57744
C         -0.34874        9.84703        7.28432
C          2.87182        6.10160        7.17886
C          2.93322        5.14702        6.14277
C          3.79762        5.22072        5.12692
C          3.63285        4.29295        4.07999
N          4.70052        3.56849        3.64209
C          6.08358        3.66943        4.07213
C          6.87846        2.42897        3.76665
N          4.34791        2.62047        2.76849
C          3.03238        2.77936        2.56659
C          2.52050        3.87340        3.34690
C          1.13241        4.42743        3.52517
C          0.59636        5.35942        2.45570
C          2.42385        1.72926        1.68648
C          1.19782        2.05247        0.84613
C          1.41488        2.79242       -0.45137
C          1.58296        4.10880       -0.56644
H          5.94064        6.65551       -1.77028
H          8.10073        6.51487       -3.24550
H          6.87670        6.03382       -4.43932
H          9.35203        4.35759       -3.71539
H          9.24257        5.43968       -5.11787
H          8.19193        4.01533       -5.01253
H          4.42955        3.86259        0.63866
H          3.74181        5.18857       -0.30096
H          5.99038        5.58337        1.69024
H          4.27196        5.98910        1.91704
H          5.22125        6.83618        0.70786
H          5.08546        1.54433       -1.62016
H          5.59907        1.94930        0.01445
H          8.01413        1.55101       -0.70586
H          7.42842        1.00464       -2.26450
H          7.18350       -0.35674        0.44461
H          6.59857       -1.28938       -2.42415
H          6.24378       -9.23963       -2.23590
H          7.01227       -9.06562        0.33136
H          8.64464       -2.96097        1.89587
H          5.83955       -1.74650        2.16787
H          5.47233       -1.85651        4.55803
H          4.48357       -0.99271        8.46753
H          3.05881        0.21528        7.08846
H          2.47819       -1.43704        7.13740
H          3.85684       -0.11828        4.91329
H          2.27596       -0.48578        5.00599
H          3.92940       -3.23230        7.94785
H          5.64669       -2.99215        8.20064
H          6.06354       -3.40561        6.00272
H          5.10682       -4.58127        6.52091
H          4.67474        1.37722        8.84771
H          6.27494        3.17661        9.76438
H          7.87745        4.37895        8.18097
H          9.05367        2.79348        6.73717
H          9.71635        0.80632        5.04197
H          9.30509       -0.59931        3.06310
H          4.38507        3.71962        7.49242
H          5.36926        5.69596        9.63403
H         -0.58390       11.33321        8.91667
H         -1.11091       10.11487        6.58006
H          2.15519        4.38955        6.17754
H          4.60409        5.95118        5.10471
H          6.08906        3.84446        5.15300
H          6.52984        4.53407        3.57855
H          6.37210        1.57994        4.22830
H          7.88978        2.54093        4.15910
H          6.95095        2.21439        2.69773
H          1.11898        5.04880        4.42219
H          0.42713        3.61819        3.72986
H          1.37027        6.01157        2.03766
H         -0.18069        6.00878        2.87594
H          0.10513        4.79690        1.66084
H          2.16807        0.89212        2.35072
H          3.20634        1.34012        1.01737
H          0.42209        2.53393        1.44478
H          0.77094        1.08438        0.54787
H          1.37365        2.20407       -1.36513
H          1.68788        4.73723        0.29994
H          1.69744        4.59564       -1.52809
