112

C          3.70708        2.65472       -6.59865
C          4.32752        1.41025       -6.56154
F          5.66495        1.34296       -6.59453
C          3.58467        0.23992       -6.48868
C          2.19466        0.31570       -6.44279
C          1.56057        1.56269       -6.48268
C          2.30884        2.74477       -6.58116
C          1.60945        4.03861       -6.60179
C          2.08464        5.12338       -7.23365
C          1.43300        6.40730       -7.24198
C          0.88913        6.89587       -8.38036
C          0.27885        8.18180       -8.12745
C         -0.35808        8.97357       -9.11403
N         -0.88196        9.61449       -9.92575
C          0.42399        8.49863       -6.83111
C          1.17301        7.41534       -6.17921
C          1.55304        7.38601       -4.88139
C          1.24788        8.36472       -3.81074
C          1.79411        7.88186       -2.67429
C          2.46492        6.63165       -2.94372
C          2.34412        6.33303       -4.24368
C          3.15462        5.87130       -1.97064
N          3.71037        5.25306       -1.16264
C          0.55198        9.62339       -3.83959
C         -0.50869        9.89863       -3.06514
C         -1.25930       11.13772       -3.15457
C         -1.83012       11.45213       -4.34248
C         -2.65448       12.63032       -4.44787
C         -3.34084       13.11730       -5.50728
C         -3.36135       12.58050       -6.91795
C         -4.76386       12.13341       -7.39070
N         -5.33078       11.07982       -6.54395
C         -2.70916       13.56863       -7.91438
N         -1.30089       13.82645       -7.58615
C         -4.03251       14.29354       -4.99300
C         -4.91091       15.12648       -5.56940
C         -5.54074       16.28307       -4.81604
C         -5.06212       16.42215       -3.37461
C         -4.17839       15.58723       -2.79916
C         -3.67155       14.49853       -3.58869
C         -2.84930       13.48957       -3.26589
C         -2.19279       13.14883       -2.02731
C         -1.45152       12.02252       -1.98614
C         -5.26652       17.56269       -5.55629
C         -6.21311       18.36018       -6.07718
C         -5.89764       19.63185       -6.67246
C         -5.26039       20.59085       -5.95989
C         -5.15805       21.80225       -6.73631
C         -4.48697       22.96834       -6.31087
N         -3.92999       23.92275       -5.96183
C         -5.76049       21.62588       -7.92173
C         -6.27196       20.25298       -7.96492
C         -6.88426       19.69434       -9.02994
C         -7.31229       20.37309      -10.26952
C         -7.73480       19.40916      -11.11213
C         -7.65407       18.12038      -10.46299
C         -7.18676       18.27234       -9.21680
C         -8.05411       16.92551      -11.10255
N         -8.39863       15.96971      -11.66892
C         -7.45075       21.76040      -10.62917
C         -8.63923       22.36763      -10.80626
C         -8.79041       23.71572      -11.40508
C         -7.87128       24.12446      -12.40242
F         -6.88389       23.30481      -12.80452
C         -7.94800       25.35449      -13.03169
C         -8.96915       26.22678      -12.69666
C         -9.91602       25.84533      -11.74678
C         -9.87037       24.58603      -11.10521
C        -10.91951       24.26957      -10.10738
C        -12.17603       24.74582      -10.13235
H          4.33660        3.53808       -6.63357
H          4.09305       -0.71839       -6.46191
H          1.60299       -0.59387       -6.37610
H          0.47341        1.59921       -6.44531
H          0.66664        4.08526       -6.05978
H          3.00141        5.07467       -7.81763
H          0.88472        6.40928       -9.34574
H          0.06955        9.40947       -6.38301
H          1.77084        8.35572       -1.70290
H          2.77945        5.46899       -4.71349
H          0.92305       10.36469       -4.54424
H         -0.88816        9.17384       -2.34749
H         -1.72476       10.81693       -5.21311
H         -2.73986       11.67516       -6.95792
H         -4.69368       11.74948       -8.41490
H         -5.46617       12.97058       -7.41797
H         -4.65208       10.32929       -6.42485
H         -6.14344       10.67007       -7.00064
H         -3.24990       14.52046       -7.94199
H         -2.74623       13.14859       -8.92562
H         -1.24598       14.24660       -6.65640
H         -0.91887       14.51462       -8.23235
H         -5.22658       14.98921       -6.59591
H         -6.62217       16.09691       -4.77866
H         -5.47601       17.24001       -2.79096
H         -3.85990       15.71016       -1.77123
H         -2.30713       13.78524       -1.15901
H         -0.95337       11.73673       -1.06426
H         -4.21596       17.84049       -5.64444
H         -7.26649       18.09913       -6.00820
H         -4.90405       20.50117       -4.94264
H         -5.77522       22.35270       -8.71583
H         -8.13319       19.56374      -12.10567
H         -7.01413       17.47846       -8.50664
H         -6.51477       22.26173      -10.86394
H         -9.56117       21.83991      -10.57439
H         -7.20659       25.61774      -13.77914
H         -9.03658       27.19920      -13.17567
H        -10.70021       26.56039      -11.50544
H        -10.63669       23.60912       -9.29280
H        -12.54851       25.40243      -10.91464
H        -12.88438       24.48771       -9.35036
