114

C         -2.60617      -14.57037       -5.17599
C         -2.97055      -13.70051       -4.24371
C         -2.34500      -13.49723       -2.90817
C         -1.20543      -14.34454       -2.54721
C         -0.71712      -15.27076       -3.38236
S         -1.27805      -15.65977       -4.97698
N         -2.89723      -12.55418       -2.17138
C         -3.94180      -12.09913       -3.01611
C         -3.98906      -12.75770       -4.20790
S         -5.23075      -12.25982       -5.19532
C         -5.77382      -11.11603       -3.98342
C         -4.94260      -11.13689       -2.85812
C         -6.94362      -10.35438       -4.26875
C         -7.10454       -9.13441       -3.73281
C         -8.31222       -8.33247       -4.02883
N         -9.33914       -8.75337       -4.72874
C        -10.20878       -7.71481       -4.66648
C         -9.65711       -6.63876       -3.88755
C        -10.63426       -5.52692       -3.83176
O        -10.54426       -4.44745       -3.28721
C        -11.76831       -6.06667       -4.62496
C        -11.42480       -7.38555       -5.09156
N        -12.44937       -7.90190       -5.81935
C        -13.33849       -6.94734       -5.78475
C        -12.98368       -5.72286       -5.03502
C         -8.43182       -6.94252       -3.47162
C         -7.53595       -6.18037       -2.66430
C         -6.19629       -6.24658       -2.73004
C         -5.35147       -5.46264       -1.86377
C         -4.51738       -6.09965       -1.00297
C         -3.86384       -5.32456        0.03491
C         -2.98694       -5.66738        1.01939
C         -2.06229       -6.88823        1.14810
C         -2.72392       -8.09913        1.86493
N         -1.89175       -9.31562        1.94133
C         -1.43179       -7.26769       -0.23585
N         -0.34213       -8.25237       -0.19288
C         -2.96033       -4.47035        1.88659
C         -2.53075       -4.26262        3.14281
C         -2.70078       -2.90427        3.84190
C         -3.18851       -1.78315        2.93076
C         -3.65351       -2.00795        1.69301
C         -3.65167       -3.36455        1.22562
C         -4.19681       -3.88342        0.12460
C         -4.90514       -3.22358       -0.93843
C         -5.43503       -3.99491       -1.89824
C         -1.43218       -2.53018        4.56074
C         -0.40162       -1.80777        4.07496
C          0.81044       -1.65769        4.90929
N          1.18491       -2.55786        5.78970
C          2.33769       -2.06407        6.27209
C          2.66042       -0.81016        5.62927
C          3.91233       -0.29935        6.22765
O          4.52484        0.72323        5.97618
C          4.26514       -1.33330        7.21398
C          3.26926       -2.37548        7.17951
N          3.56175       -3.32798        8.09690
C          4.66940       -2.88790        8.62963
C          5.19610       -1.60638        8.12012
C          1.73636       -0.47721        4.73731
C          1.58863        0.70705        3.93797
C          2.60194        1.43026        3.41304
C          2.43379        2.59717        2.54863
C          1.80826        2.55955        1.37027
C          1.53059        3.71677        0.46343
C          2.11849        5.01789        0.76964
C          2.84548        5.21376        1.87555
S          3.15552        4.07666        3.14453
N          0.79274        3.44529       -0.59275
C          0.62159        2.04828       -0.47278
C          1.22327        1.52868        0.63429
S          1.19037       -0.13896        0.65897
C          0.28066       -0.18500       -0.82914
C          0.03772        1.10021       -1.31314
C         -0.06605       -1.45495       -1.36387
C         -0.22757       -1.63292       -2.68064
H         -3.14713      -14.62085       -6.11622
H         -0.77641      -14.18383       -1.56549
H          0.13176      -15.85864       -3.04156
H         -5.08168      -10.52662       -1.97564
H         -7.69556      -10.76387       -4.93243
H         -6.35453       -8.73572       -3.07197
H        -14.32175       -7.00518       -6.27566
H        -13.56370       -4.83654       -4.88154
H         -8.00779       -5.48055       -1.96954
H         -5.66557       -6.86184       -3.44599
H         -4.45258       -7.18147       -0.95502
H         -1.21335       -6.57372        1.77303
H         -3.66939       -8.36943        1.38373
H         -2.95550       -7.80531        2.89472
H         -1.99228       -9.84550        1.07147
H         -2.26161       -9.93835        2.66096
H         -1.01332       -6.37004       -0.70500
H         -2.20205       -7.65793       -0.90761
H         -0.42904       -8.80031        0.67194
H         -0.44348       -8.91495       -0.96126
H         -2.09638       -5.07280        3.71938
H         -3.48480       -3.02125        4.60481
H         -3.17616       -0.76645        3.31493
H         -4.00953       -1.20405        1.05956
H         -4.96149       -2.14377       -0.98994
H         -5.94600       -3.54397       -2.74539
H         -1.37052       -2.93510        5.57238
H         -0.39915       -1.41211        3.06918
H          5.21750       -3.40792        9.42827
H          6.07167       -1.06539        8.42388
H          0.56311        1.02129        3.74944
H          3.64033        1.16746        3.61340
H          1.97450        5.79805        0.03153
H          3.29243        6.19662        2.00923
H         -0.49528        1.31792       -2.22785
H         -0.17269       -2.30173       -0.68879
H         -0.09080       -0.83191       -3.40033
H         -0.47970       -2.61236       -3.07215
