53

C          0.91739        4.08994       -0.53925
S         -0.43101        3.08236       -0.27515
C          0.36213        1.72832       -0.95450
O         -0.28089        0.56525       -0.95541
C          1.62817        2.03676       -1.41965
C          1.93931        3.41812       -1.17244
C          2.61477        1.11842       -2.05039
C          3.98162        1.23217       -1.87954
F          4.54922        2.15412       -1.14278
S          4.88581        0.06343       -2.70306
C          3.47593       -0.63802       -3.31320
F          3.50344       -1.67016       -4.12013
C          2.31487       -0.00942       -2.90928
C          1.01966       -0.42366       -3.37223
C          0.64442       -1.69169       -3.62779
C         -0.63983       -2.00479       -4.13608
S         -2.08428       -1.11174       -3.82728
C         -3.06042       -2.03331       -4.91950
C         -2.28698       -3.05313       -5.37246
C         -0.96692       -3.03525       -4.95091
N         -0.13193       -4.00538       -5.43932
C         -0.99723       -4.70610       -6.26574
N         -0.49864       -5.82320       -7.01009
O          0.69549       -6.10534       -6.84975
O         -1.29958       -6.40773       -7.74723
C         -2.29705       -4.16420       -6.26877
C         -4.49968       -1.72592       -5.24625
C         -5.39954       -2.71880       -5.57247
F         -5.10799       -3.99542       -5.59557
S         -6.96896       -2.16205       -5.87130
C         -6.48905       -0.56723       -5.58906
F         -7.33262        0.43391       -5.66534
C         -5.14994       -0.42421       -5.28547
C         -4.53373        0.86908       -5.09837
C         -4.89369        2.00660       -5.71486
C         -4.23499        3.26174       -5.52740
S         -2.58064        3.40029       -5.05811
C         -2.61015        5.09829       -5.12667
O         -1.51663        5.79267       -4.83795
C         -3.83978        5.57574       -5.50101
C         -4.77027        4.52200       -5.73962
H          0.90018        5.12378       -0.22018
H         -1.15805        0.76258       -0.58220
H          2.87486        3.90319       -1.42627
H          0.30310        0.38162       -3.52033
H          1.34805       -2.50649       -3.47914
H          0.85415       -4.14892       -5.26466
H         -3.12152       -4.52913       -6.86834
H         -3.70349        0.91165       -4.40311
H         -5.73761        2.01206       -6.40200
H         -0.84587        5.11870       -4.63103
H         -4.05922        6.63127       -5.60472
H         -5.79544        4.68713       -6.05279
