96

C          2.99152       -9.80785       -0.18621
C          3.30593       -8.50155       -0.06812
O          2.42929       -7.58741        0.53283
C          1.27144       -8.11575        0.99524
C          0.96050       -9.48727        0.86171
C         -0.25359       -9.81876        1.40427
S         -1.01426       -8.43315        2.08837
C          0.29474       -7.40526        1.64357
O          1.80117      -10.36328        0.26395
C          4.55453       -7.95408       -0.55857
C          4.91083       -6.66233       -0.47466
C          6.17280       -6.16969       -1.04338
C          7.31411       -6.18747       -0.22822
C          8.49440       -5.72090       -0.77296
C          8.57642       -5.27274       -2.07687
C          9.96241       -4.85617       -2.31787
O         10.36486       -4.40778       -3.36456
N         10.63487       -5.07571       -1.14369
C          9.81624       -5.57871       -0.17193
O         10.07219       -5.85688        0.98604
C         12.03594       -4.75321       -0.93926
C         12.22062       -3.34354       -0.39839
C          7.47763       -5.24637       -2.91260
C          6.25266       -5.68867       -2.38505
C          5.06898       -5.61418       -3.24592
C          4.29068       -4.52093       -3.28071
C          3.12488       -4.50607       -4.08085
N          2.10774       -3.64870       -3.71301
C          1.07819       -3.81452       -4.59520
C         -0.22515       -3.35844       -4.90088
C         -0.55630       -4.01891       -6.07217
N          0.42934       -4.92096       -6.38857
C          1.44629       -4.74851       -5.50372
C          2.74306       -5.20997       -5.21123
C         -1.70154       -3.94649       -6.88829
C         -1.68151       -4.25713       -8.19401
C         -2.87303       -4.25044       -9.05960
C         -2.65436       -3.92379      -10.41277
C         -3.74824       -3.91313      -11.25280
C         -5.01483       -4.22719      -10.80507
C         -5.93142       -4.08788      -11.93245
O         -7.12287       -4.31027      -11.86299
N         -5.17448       -3.68602      -12.99888
C         -3.84845       -3.58905      -12.67301
O         -2.89564       -3.29328      -13.37161
C         -5.71583       -3.43233      -14.31962
C         -5.48504       -1.99745      -14.76723
C         -5.26903       -4.58590       -9.49914
C         -4.18505       -4.60472       -8.61083
C         -4.47900       -5.02514       -7.23223
C         -4.26474       -6.28663       -6.82600
C         -4.41304       -6.75183       -5.45671
C         -3.74776       -7.80437       -4.90684
O         -3.91696       -8.16872       -3.55920
C         -4.81022       -7.43781       -2.85647
C         -5.51484       -6.36529       -3.43092
C         -6.38230       -5.75927       -2.55958
S         -6.31825       -6.51469       -1.01400
C         -5.12852       -7.64520       -1.53862
O         -5.33811       -5.99505       -4.71757
C         -2.72367       -8.61487       -5.54110
C         -2.85905       -9.34043       -6.65854
H          3.61701      -10.56505       -0.63685
H         -0.73002      -10.78783        1.44320
H          0.27655       -6.35218        1.88487
H          5.22760       -8.66159       -1.04032
H          4.27566       -5.91581       -0.00622
H          7.28203       -6.54411        0.79716
H         12.56654       -4.85025       -1.89252
H         12.45955       -5.47344       -0.23054
H         11.88226       -2.59704       -1.12434
H         13.27723       -3.15518       -0.18394
H         11.65188       -3.19366        0.52524
H          7.56553       -4.88634       -3.93381
H          4.83889       -6.50909       -3.81681
H          4.53057       -3.64914       -2.67658
H          2.07752       -3.00477       -2.93197
H         -0.82628       -2.62714       -4.37747
H          0.44741       -5.59270       -7.14403
H          3.31621       -5.94766       -5.75322
H         -2.60586       -3.60891       -6.39657
H         -0.74838       -4.50845       -8.69287
H         -1.67228       -3.66594      -10.79781
H         -6.79011       -3.64579      -14.31727
H         -5.23200       -4.12071      -15.02063
H         -5.91107       -1.28914      -14.04924
H         -5.94687       -1.82423      -15.74351
H         -4.41713       -1.77577      -14.85919
H         -6.27289       -4.84729       -9.17726
H         -4.77497       -4.23512       -6.54539
H         -3.91416       -7.00883       -7.55513
H         -7.04547       -4.92516       -2.74192
H         -4.73892       -8.38850       -0.85800
H         -1.77808       -8.65717       -5.00233
H         -3.79003       -9.38865       -7.21359
H         -2.02548       -9.92655       -7.03564
