116

C         -2.50544       11.80126       16.46078
S         -3.85225       11.40962       15.47287
C         -2.99912       11.80112       14.02754
C         -1.71287       12.18215       14.34904
C         -1.40593       12.19191       15.72558
C         -0.80611       12.54884       13.29221
C         -1.26078       12.54510       11.98631
S          0.04150       13.02356       10.95014
C          1.12275       13.22347       12.26402
C          0.53550       12.94324       13.47875
C         -2.58844       12.19035       11.68152
C         -3.45979       11.78378       12.70780
C         -3.06833       12.30822       10.31303
C         -3.64812       13.46262        9.91803
C         -4.15375       13.31407        8.57648
C         -4.85205       14.33012        7.88365
N         -5.43030       15.17167        7.33198
C         -3.90071       12.06985        8.13428
C         -3.17354       11.34991        9.18738
C         -2.69298       10.08587        9.14633
C         -2.75200        9.06688        8.06288
C         -2.16094        7.95841        8.57611
C         -1.68820        8.19753        9.90984
C         -1.97947        9.44924       10.26115
C         -0.99483        7.24968       10.69142
N         -0.42099        6.46497       11.33105
C         -3.25578        9.10687        6.70640
C         -3.19903        8.08199        5.85016
C         -3.69151        8.08136        4.48953
C         -5.00406        8.33589        4.25798
C         -5.56169        8.01209        2.96219
C         -6.84836        7.97979        2.52443
C         -8.13791        8.44634        3.18732
C         -8.48333        7.71582        4.51070
N         -8.66281        6.26985        4.36027
C         -8.10015        9.98670        3.41783
N         -9.30958       10.52728        4.05127
C         -6.76026        7.28410        1.23159
C         -7.69556        6.70238        0.46602
C         -7.33445        5.91252       -0.79292
C         -5.84321        5.85252       -1.10309
C         -4.91275        6.43481       -0.33271
C         -5.36126        7.08079        0.86763
C         -4.65080        7.48888        1.92093
C         -3.23743        7.38504        2.15990
C         -2.79744        7.64684        3.39940
C         -8.11404        6.49358       -1.94073
C         -7.67015        7.45469       -2.76930
C         -8.48511        8.09745       -3.76717
C         -9.45433        7.42943       -4.43494
C        -10.07984        8.29061       -5.40667
C        -11.20957        7.91775       -6.16977
N        -12.14129        7.59300       -6.77960
C         -9.46476        9.48312       -5.40766
C         -8.38636        9.43535       -4.41155
C         -7.52163       10.44308       -4.15630
C         -7.31523       11.67758       -4.94984
C         -6.36753       12.39465       -4.30864
C         -5.94778       11.70410       -3.11244
C         -6.60392       10.53803       -3.01629
C         -5.00265       12.22763       -2.19958
N         -4.22911       12.68538       -1.46620
C         -7.77825       12.08414       -6.25477
C         -6.96502       12.12973       -7.32323
C         -7.40078       12.62591       -8.58365
S         -6.59615       12.09818      -10.02007
C         -7.55513       13.09276      -11.04380
C         -8.45234       13.79384      -10.26959
C         -8.39521       13.54316       -8.88481
C         -9.34875       14.71855      -10.90580
C         -9.28439       14.87030      -12.27562
S        -10.45305       16.04061      -12.76376
C        -10.98655       16.29331      -11.15142
C        -10.30674       15.51202      -10.24139
C         -8.37698       14.14513      -13.05974
C         -7.50141       13.24272      -12.43569
H         -2.58911       11.72224       17.53600
H         -0.46500       12.47348       16.17913
H          2.13903       13.54353       12.07809
H          1.06381       13.02428       14.41943
H         -4.48337       11.49312       12.48462
H         -3.76162       14.35756       10.51457
H         -4.21534       11.70537        7.17556
H         -2.01382        7.00388        8.08974
H         -1.70555        9.88057       11.20501
H         -3.67316       10.03264        6.33841
H         -2.75679        7.12539        6.12083
H         -5.67451        8.61176        5.06144
H         -8.97130        8.26293        2.49489
H         -9.41928        8.11163        4.92239
H         -7.71788        7.89841        5.26972
H         -9.47889        6.09564        3.77629
H         -8.88342        5.87494        5.27423
H         -7.96067       10.50038        2.45903
H         -7.25057       10.25683        4.05377
H        -10.11236       10.40576        3.43507
H         -9.20241       11.53484        4.17819
H         -8.74124        6.73177        0.75090
H         -7.65978        4.87419       -0.64476
H         -5.53316        5.31435       -1.99504
H         -3.85803        6.39231       -0.57587
H         -2.56516        7.05114        1.37919
H         -1.74464        7.52204        3.63565
H         -9.13741        6.13302       -2.01061
H         -6.65153        7.81281       -2.66670
H         -9.74080        6.39728       -4.28931
H         -9.78106       10.34011       -5.97550
H         -5.92856       13.32237       -4.64974
H         -6.51166        9.85307       -2.19073
H         -8.81771       12.39191       -6.31564
H         -5.92947       11.80395       -7.23530
H         -9.01016       14.01725       -8.13156
H        -11.77521       17.00571      -10.95178
H        -10.50637       15.53636       -9.17842
H         -8.34358       14.28101      -14.13721
H         -6.78744       12.67667      -13.02779
