136

C          1.37234        0.68261        0.27268
S          1.72475       -0.97552        0.32524
C          0.07361       -1.41351        0.09833
C         -0.72050       -0.28354       -0.08258
C          0.04453        0.94194        0.00785
O         -0.48490        2.19230       -0.12214
C          0.45553        3.26555       -0.08594
O         -2.06313       -0.45501       -0.22750
C         -2.75886        0.51308       -0.99632
C         -0.25655       -2.85687        0.08228
C         -1.10980       -3.40354       -0.89399
C         -1.31896       -4.78331       -0.91271
C         -0.67588       -5.63544        0.01577
C          0.14039       -5.10905        0.99816
C          0.33235       -3.72492        1.03522
C         -1.04587       -7.00994       -0.24632
C         -1.96638       -7.04386       -1.31226
C         -2.22855       -5.62009       -1.82533
C         -1.85012       -5.51396       -3.32818
C         -0.40057       -5.85679       -3.67947
C         -3.72721       -5.25349       -1.62619
C         -4.23274       -5.27786       -0.18018
C         -2.51142       -8.23974       -1.76357
C         -2.12076       -9.43242       -1.14126
C         -1.18052       -9.39862       -0.09187
C         -0.64273       -8.18631        0.36312
C         -2.70248      -10.71265       -1.59335
C         -3.81505      -11.15306       -0.95427
C         -4.48408      -12.34434       -1.43984
C         -5.60072      -12.97603       -0.99357
C         -6.37829      -12.70016        0.27830
C         -7.52250      -11.69936       -0.00433
N         -8.26445      -11.31004        1.19538
C         -6.84004      -14.01020        0.98228
N         -7.37897      -13.83840        2.33652
C         -5.84842      -14.03475       -1.97382
C         -6.88719      -14.86714       -2.15080
C         -6.90836      -15.94391       -3.22659
C         -5.66183      -15.95724       -4.09816
C         -4.65478      -15.07286       -3.97481
C         -4.74443      -14.07996       -2.93540
C         -3.94496      -13.04559       -2.62906
C         -2.71972      -12.57628       -3.23383
C         -2.13892      -11.46748       -2.73042
C         -7.14562      -17.29792       -2.59009
C         -7.85486      -18.27873       -3.17808
C         -8.19838      -19.57555       -2.56773
C         -8.41934      -20.68380       -3.40620
C         -8.81625      -21.89524       -2.84763
C         -9.01664      -22.00650       -1.45499
C         -8.82063      -20.92036       -0.61824
C         -8.41270      -19.70588       -1.18085
C         -9.45807      -23.35095       -1.14141
C         -9.58704      -24.08588       -2.32994
C         -9.12922      -23.23683       -3.53412
C         -7.83399      -23.93247       -4.05067
C         -7.13654      -23.33710       -5.26393
C        -10.24347      -23.14025       -4.60538
C        -11.56422      -22.52477       -4.13311
C        -10.00752      -25.41148       -2.31788
C        -10.27511      -26.02799       -1.09160
C        -10.10847      -25.27512        0.10284
C         -9.71632      -23.93991        0.07497
C        -10.70565      -27.43297       -1.02777
S        -12.08085      -27.81065       -0.06791
C        -11.90173      -29.47623       -0.35138
C        -10.84935      -29.76310       -1.19469
C        -10.19818      -28.56435       -1.65318
O         -9.12019      -28.43928       -2.47635
C         -9.04952      -29.36382       -3.55329
O        -10.48356      -31.02211       -1.56533
C        -10.81088      -32.03408       -0.61519
H          2.18448        1.37580        0.42904
H         -0.03410        4.16719       -0.46573
H          1.32566        3.08658       -0.72913
H          0.76974        3.45675        0.94579
H         -3.29998       -0.02053       -1.78519
H         -2.13952        1.26335       -1.49034
H         -3.50319        1.00303       -0.36018
H         -1.59029       -2.76468       -1.62828
H          0.62219       -5.74371        1.73315
H          0.96589       -3.32242        1.82370
H         -2.05622       -4.50056       -3.69438
H         -2.49540       -6.18611       -3.91022
H          0.29974       -5.13866       -3.24312
H         -0.26663       -5.82935       -4.76646
H         -0.12089       -6.86070       -3.34577
H         -4.34781       -5.94845       -2.20709
H         -3.92389       -4.25339       -2.03310
H         -3.93936       -6.18722        0.35226
H         -5.32672       -5.23350       -0.16721
H         -3.86284       -4.41518        0.38289
H         -3.23118       -8.25113       -2.57660
H         -0.86807      -10.32832        0.38152
H          0.07407       -8.18065        1.17604
H         -4.26203      -10.59652       -0.13592
H         -5.68703      -12.21269        0.98044
H         -8.21827      -12.11981       -0.73815
H         -7.10719      -10.78198       -0.43891
H         -8.44560      -12.16113        1.74618
H         -9.17451      -10.93801        0.93338
H         -6.00396      -14.71819        1.03315
H         -7.64236      -14.48619        0.41886
H         -6.66514      -13.41346        2.92862
H         -7.56974      -14.75851        2.73479
H         -7.77968      -14.80490       -1.54254
H         -7.75904      -15.71050       -3.88165
H         -5.61885      -16.70827       -4.88208
H         -3.79614      -15.09647       -4.63476
H         -2.28534      -13.11510       -4.06629
H         -1.21535      -11.09241       -3.16224
H         -6.72808      -17.44421       -1.59558
H         -8.22665      -18.13028       -4.18964
H         -8.28776      -20.59340       -4.47973
H         -8.99655      -20.99445        0.44906
H         -8.29072      -18.85140       -0.51949
H         -8.05849      -24.97842       -4.30237
H         -7.09629      -23.97745       -3.23543
H         -7.73839      -23.45167       -6.16934
H         -6.19275      -23.87075       -5.42855
H         -6.88630      -22.28393       -5.12944
H        -10.46563      -24.14384       -4.99043
H         -9.89284      -22.55202       -5.46233
H        -11.96485      -23.02928       -3.24861
H        -12.31852      -22.60951       -4.92354
H        -11.45223      -21.46087       -3.90221
H        -10.10724      -25.96629       -3.24881
H        -10.27982      -25.75197        1.06567
H         -9.60330      -23.38368        1.00720
H        -12.59198      -30.15056        0.13120
H         -8.87356      -28.79042       -4.47080
H         -9.95191      -29.95843       -3.71762
H         -8.18627      -30.01977       -3.40408
H        -10.43917      -32.99052       -0.99269
H        -11.89392      -32.13888       -0.48770
H        -10.32454      -31.83396        0.34605
