114

C         -3.16257        1.93221       -6.34104
S         -3.62227        0.29705       -6.24522
C         -4.17720        0.47350       -4.62247
C         -4.12427        1.80814       -4.22361
C         -3.52712        2.65776       -5.22767
O         -3.32989        3.99887       -5.07786
C         -2.77462        4.67393       -6.20358
O         -4.55214        2.12690       -2.97129
C         -5.07379        3.43730       -2.78825
C         -4.69084       -0.68344       -3.96706
C         -6.02668       -0.90940       -3.99930
C         -6.32366       -2.22986       -3.48656
C         -7.62243       -2.77107       -3.34118
N         -8.68223       -3.22210       -3.22068
C         -5.18145       -2.85084       -3.16527
C         -4.07137       -1.93915       -3.46118
C         -2.77042       -2.24868       -3.28092
C         -2.18850       -3.58513       -3.00463
C         -0.86051       -3.39477       -2.85722
C         -0.53628       -1.99652       -3.02343
C         -1.65597       -1.30100       -3.29216
C          0.77336       -1.46865       -2.90384
N          1.84838       -1.05437       -2.81171
C         -2.74435       -4.91599       -3.02845
C         -3.42210       -5.40446       -4.07943
C         -3.90351       -6.77145       -4.14696
C         -3.43990       -7.52567       -5.17189
C         -3.77391       -8.92935       -5.23003
C         -3.36769       -9.88616       -6.09855
C         -2.50810       -9.71630       -7.33216
C         -1.18753      -10.51564       -7.22349
N         -0.29664      -10.33491       -8.36948
C         -3.34145      -10.00637       -8.60996
N         -2.68278       -9.60132       -9.85959
C         -3.94193      -11.12462       -5.57390
C         -3.80996      -12.40065       -5.96424
C         -4.51829      -13.54604       -5.25150
C         -5.34064      -13.11932       -4.04475
C         -5.46309      -11.84025       -3.64781
C         -4.75719      -10.83077       -4.39231
C         -4.64530       -9.51021       -4.18812
C         -5.20510       -8.65330       -3.17133
C         -4.84122       -7.35455       -3.16132
C         -5.37701      -14.29613       -6.23746
C         -6.39199      -13.74493       -6.92683
C         -7.09037      -14.43547       -7.97579
C         -6.42677      -14.86133       -9.07649
C         -7.34625      -15.47285      -10.00392
C         -6.96771      -16.05363      -11.23749
N         -6.64940      -16.51716      -12.24995
C         -8.58847      -15.41483       -9.50230
C         -8.52370      -14.73947       -8.20050
C         -9.58097      -14.50660       -7.39082
C        -11.00607      -14.80005       -7.66429
C        -11.69088      -14.49125       -6.54329
C        -10.78047      -13.97744       -5.54519
C         -9.53132      -13.96192       -6.03617
C        -11.19321      -13.50603       -4.27274
N        -11.55055      -13.11671       -3.24802
C        -11.68086      -15.13087       -8.88795
C        -12.53759      -16.15150       -9.02367
C        -13.16570      -16.40253      -10.27480
S        -14.81009      -16.86894      -10.24439
C        -14.87293      -16.94951      -11.93481
C        -13.68436      -16.62072      -12.55668
C        -12.66147      -16.35163      -11.57394
O        -11.31418      -16.18035      -11.69263
C        -10.80685      -15.46076      -12.79763
O        -13.52119      -16.58467      -13.91468
C        -14.67589      -16.95481      -14.68269
H         -2.66382        2.27253       -7.23557
H         -2.92430        5.75010       -6.07343
H         -3.26667        4.40192       -7.14464
H         -1.69854        4.48041       -6.25508
H         -6.10938        3.34356       -2.44643
H         -5.09783        4.07417       -3.67294
H         -4.50251        3.93663       -1.99894
H         -6.77977       -0.25528       -4.41387
H         -5.11725       -3.82594       -2.71296
H         -0.11933       -4.17616       -2.70620
H         -1.72330       -0.23445       -3.39536
H         -2.52293       -5.55393       -2.17355
H         -3.58970       -4.79354       -4.96471
H         -2.75267       -7.11884       -5.90501
H         -2.21560       -8.65895       -7.39582
H         -1.38541      -11.58432       -7.11947
H         -0.64470      -10.20265       -6.32378
H         -0.86689      -10.40566       -9.22464
H          0.36850      -11.10474       -8.40977
H         -4.29794       -9.47226       -8.55184
H         -3.56739      -11.07453       -8.68497
H         -2.39031       -8.62426       -9.78479
H         -3.35848       -9.63099      -10.62345
H         -3.19613      -12.67368       -6.81402
H         -3.73726      -14.22756       -4.88790
H         -5.84484      -13.90414       -3.48726
H         -6.05930      -11.56858       -2.78490
H         -5.90139       -9.05366       -2.44419
H         -5.25426       -6.68712       -2.41022
H         -5.09925      -15.33456       -6.41063
H         -6.66672      -12.70449       -6.76479
H         -5.36759      -14.75290       -9.26354
H         -9.46000      -15.83921       -9.96793
H        -12.76559      -14.51973       -6.42361
H         -8.65547      -13.61409       -5.51479
H        -11.45431      -14.47960       -9.72949
H        -12.79740      -16.78744       -8.18104
H        -15.81697      -17.24731      -12.35958
H        -10.02098      -14.79558      -12.41088
H        -11.53655      -14.83685      -13.31530
H        -10.31246      -16.15763      -13.47954
H        -14.63939      -16.44624      -15.64980
H        -15.63171      -16.64728      -14.24445
H        -14.68051      -18.03739      -14.85270
