98

C         13.10048        5.11271        9.27331
O         13.95711        4.47706       10.11671
C         15.06571        4.17416        9.39526
C         14.92882        4.60585        8.09635
C         13.65469        5.22280        8.01660
C         13.07812        5.82177        6.86057
C         11.86957        6.40223        6.79787
C         11.33461        6.96400        5.57930
C         10.02010        7.14392        5.41869
C          9.40510        7.71871        4.27035
C          9.89018        7.75970        2.86363
N          9.11679        8.32427        1.99054
C          8.04448        8.70382        2.73793
C          8.22201        8.32809        4.11645
C          7.03641        8.77528        4.90894
S          6.79234        8.58247        6.53997
C          6.18509        9.44990        3.86126
C          6.88737        9.33639        2.59149
N          6.18870        9.93078        1.59306
C          5.13974       10.38208        2.21397
C          5.05249       10.13709        3.68798
C          3.95627       10.58621        4.53382
C          3.29035       11.73781        4.22061
C          2.14409       12.18439        5.00501
C          1.33800       13.27983        4.89826
C          1.46460       14.46988        3.95541
C          0.58726       14.33075        2.68301
N          0.98417       13.22082        1.81106
C          1.17440       15.85279        4.61289
N          2.01294       16.14404        5.77621
C          0.32746       13.10636        5.95562
C         -0.73305       13.84029        6.33533
C         -1.63764       13.46104        7.49533
C         -1.27453       12.13824        8.14579
C         -0.21865       11.39456        7.77250
C          0.60175       11.87160        6.69077
C          1.69234       11.33641        6.12618
C          2.41913       10.13969        6.45633
C          3.47729        9.79776        5.69680
C         -1.64034       14.55781        8.54029
C         -2.74331       15.23402        8.90191
C         -2.82175       16.23285        9.92390
C         -1.76276       16.68434       10.86820
N         -2.10903       17.56274       11.76805
C         -3.42673       17.75658       11.50489
C         -3.84736       16.96016       10.37486
C         -5.31159       17.19110       10.13962
S         -6.25852       16.68114        8.87544
C         -5.67925       18.05431       11.30591
C         -4.46684       18.39870       12.02473
N         -4.74111       19.20093       13.08836
C         -6.04033       19.30018       13.04484
C         -6.71848       18.55759       11.96377
C         -8.10213       18.40248       11.79655
O         -8.84126       19.24494       10.99147
C        -10.14881       18.90979       11.09481
C        -10.30451       17.85496       11.95329
C         -8.99853       17.51002       12.39560
C         -8.68060       16.47295       13.33329
C         -9.41583       15.35870       13.50066
C         -9.14033       14.35666       14.50387
C        -10.00865       13.38461       14.81225
H         12.16053        5.41321        9.71514
H         15.84778        3.66064        9.93554
H         15.66094        4.48869        7.30988
H         13.66750        5.76087        5.94662
H         11.24043        6.46311        7.68386
H         12.04629        7.26721        4.81434
H          9.34124        6.83958        6.21428
H         10.86656        7.31073        2.62038
H          4.32629       10.91996        1.70644
H          3.55639       12.34853        3.36582
H          2.51016       14.52339        3.61904
H          0.65606       15.25081        2.08887
H         -0.46661       14.20700        2.95663
H          1.92142       13.38965        1.44850
H          0.37069       13.19896        0.99589
H          0.12522       15.94404        4.89479
H          1.32036       16.65468        3.88044
H          2.10739       15.30690        6.35329
H          1.54609       16.83278        6.36612
H         -1.03382       14.73942        5.82203
H         -2.64541       13.34941        7.07419
H         -1.92394       11.78341        8.94101
H          0.00282       10.44658        8.24706
H          2.11417        9.53611        7.30276
H          3.99916        8.88040        5.94219
H         -0.68101       14.75805        9.01376
H         -3.68155       14.99372        8.40416
H         -0.74777       16.26710       10.79227
H         -6.63874       19.89359       13.75210
H        -10.83899       19.51053       10.51907
H        -11.24488       17.40469       12.24180
H         -7.81285       16.62621       13.97210
H        -10.28193       15.17817       12.86577
H         -8.19637       14.41078       15.04090
H        -10.97728       13.29437       14.32954
H         -9.77582       12.66147       15.58824
