120

C         -6.36392       -7.77065        2.34582
C         -6.21877       -8.69163        1.17876
O         -5.35736       -8.72766        0.33162
C         -7.39916       -9.56475        1.23719
C         -8.09628       -9.36620        2.44206
C         -7.31932       -8.41944        3.28300
C         -7.38690       -8.27483        4.62735
C         -8.33090       -9.00164        5.41431
N         -9.11571       -9.57925        6.03805
C         -6.52421       -7.42994        5.37646
N         -5.84747       -6.72412        6.01916
C         -9.33773       -9.96410        2.59510
C         -9.82581      -10.77968        1.56117
C         -9.08295      -10.98556        0.38686
C         -7.85178      -10.36999        0.20639
Cl        -9.72747      -11.97426       -0.86308
C         -5.99010       -6.48572        2.39519
C         -5.31508       -5.57305        1.43988
C         -4.66695       -4.40770        1.90776
C         -4.56717       -4.19832        3.36045
O         -3.87858       -5.01926        3.95887
C         -5.51921       -3.31480        4.04397
C         -6.85885       -3.34344        3.66415
S         -7.90769       -2.67059        4.81613
C         -6.58819       -2.16362        5.75544
C         -5.33529       -2.46276        5.21879
C         -4.15537       -1.88274        5.91474
O         -4.30614       -1.23389        6.95314
C         -2.78728       -1.84990        5.33979
C         -2.14692       -2.98836        4.87563
C         -0.91408       -2.92150        4.22866
C         -0.22378       -1.71780        4.19449
C         -0.76954       -0.59619        4.81702
C         -2.05373       -0.65536        5.37235
C         -4.07729       -3.48151        1.04159
C         -4.17871       -3.68084       -0.33442
C         -4.87779       -4.78270       -0.83904
C         -5.43586       -5.71448        0.05732
C         -5.05901       -4.95934       -2.27971
N         -6.17672       -5.59162       -2.78769
C         -6.07292       -5.62707       -4.14199
C         -6.75424       -6.07805       -5.28627
C         -5.92176       -5.74014       -6.33821
N         -4.81467       -5.07718       -5.86856
C         -4.91810       -5.02590       -4.50641
C         -4.25114       -4.57338       -3.34494
C         -6.12665       -5.96513       -7.70930
C         -5.18102       -6.03780       -8.65728
C         -5.57060       -6.38954      -10.03973
C         -4.76481       -7.11462      -10.92765
C         -3.29108       -7.22776      -10.76061
O         -2.64198       -6.55635      -11.55342
C         -2.64086       -7.96507       -9.66776
C         -3.33156       -8.78704       -8.78678
S         -2.45394       -9.12101       -7.36291
C         -1.06965       -8.37854       -8.00279
C         -1.21771       -7.93158       -9.31396
C          0.00560       -7.41772       -9.97482
O          0.97853       -7.13114       -9.26733
C          0.26382       -7.34853      -11.44650
C         -0.43723       -8.06592      -12.41879
C         -0.03888       -8.01396      -13.76356
C          1.10606       -7.31073      -14.13885
C          1.82660       -6.60697      -13.18218
C          1.39239       -6.60543      -11.85510
C         -5.28607       -7.44732      -12.19378
C         -6.58851       -7.06740      -12.56838
C         -7.39362       -6.29724      -11.72095
C         -6.83089       -5.93035      -10.50314
C         -8.74853       -5.89589      -12.17228
C         -9.68668       -5.05330      -11.70046
C        -10.79605       -4.67375      -12.64531
O        -11.21235       -5.29571      -13.59949
C        -11.23662       -3.33319      -12.21688
C        -10.54056       -2.93874      -11.05879
C         -9.81110       -4.13676      -10.56162
C         -9.77001       -4.45716       -9.24349
C         -9.94187       -3.49472       -8.20330
N        -10.05680       -2.70036       -7.36931
C         -9.67364       -5.81280       -8.82300
N         -9.60756       -6.92034       -8.47091
C        -10.70219       -1.64542      -10.58512
C        -11.62569       -0.80751      -11.22903
C        -12.36466       -1.25898      -12.33598
C        -12.16165       -2.53044      -12.86028
Cl       -13.53418       -0.22263      -13.05434
H         -9.96744       -9.80209        3.46416
H        -10.80396      -11.24535        1.67060
H         -7.28063      -10.47648       -0.71027
H         -6.29336       -5.96144        3.29434
H         -7.30661       -3.84616        2.81740
H         -6.78926       -1.62345        6.67234
H         -2.56480       -3.96130        5.07932
H         -0.48490       -3.82287        3.79726
H          0.75914       -1.67113        3.73349
H         -0.19082        0.32210        4.87688
H         -2.46374        0.22652        5.86154
H         -3.53902       -2.61830        1.42348
H         -3.72850       -2.95872       -1.01231
H         -5.97444       -6.56127       -0.35224
H         -6.95861       -5.98684       -2.28249
H         -7.70302       -6.59389       -5.34592
H         -4.04324       -4.68220       -6.39106
H         -3.30139       -4.05959       -3.28930
H         -7.16047       -6.16565       -7.95461
H         -4.12840       -5.94227       -8.41900
H         -4.35869       -9.12110       -8.82849
H         -0.16818       -8.32766       -7.39974
H         -1.30116       -8.66794      -12.16312
H         -0.61540       -8.53855      -14.52163
H          1.44051       -7.31685      -15.17339
H          2.73099       -6.06997      -13.45816
H          1.96938       -6.03966      -11.12408
H         -4.66005       -7.95724      -12.92323
H         -6.93217       -7.32464      -13.56876
H         -7.35840       -5.22726       -9.87898
H         -8.98852       -6.35447      -13.13805
H        -10.15147       -1.25927       -9.73229
H        -11.78022        0.20249      -10.85181
H        -12.69974       -2.88791      -13.73198
