124

C         -2.31241      -11.19592      -11.09038
C         -3.80722      -11.18638      -11.24721
O         -4.67666      -11.48858      -10.45755
C         -4.07690      -10.72809      -12.59968
C         -2.89846      -10.68362      -13.35583
C         -1.73103      -10.91133      -12.43495
C         -0.41983      -10.78609      -12.76972
C          0.01277      -10.42011      -14.07900
N          0.37132      -10.12527      -15.14417
C          0.64999      -10.98063      -11.84340
N          1.52142      -11.12740      -11.09196
C         -3.04088      -10.46486      -14.71929
C         -4.32206      -10.20647      -15.24937
C         -5.45371      -10.14926      -14.42439
C         -5.34247      -10.42324      -13.07495
Cl        -6.99406       -9.77823      -15.08757
C         -1.75288      -11.32838       -9.87600
C         -2.43105      -11.48889       -8.60656
C         -2.25179      -12.61690       -7.87884
C         -2.96278      -12.52356       -6.62350
C         -2.93402      -13.52256       -5.61477
N         -2.89811      -14.34072       -4.79963
C         -3.60310      -11.34595       -6.56128
C         -3.37311      -10.62820       -7.82778
C         -3.99282       -9.48841       -8.22339
C         -5.11574       -8.78830       -7.57852
C         -5.63599       -7.92073       -8.47303
C         -4.80625       -7.91133       -9.64852
C         -3.79116       -8.76929       -9.47711
C         -4.96532       -7.03696      -10.74405
N         -5.05909       -6.33093      -11.66043
C         -5.59704       -8.76361       -6.24084
C         -4.77229       -8.51741       -5.21482
C         -5.24301       -8.27207       -3.87410
C         -6.39673       -8.85566       -3.46565
C         -6.97814       -8.47156       -2.21291
C         -8.19363       -8.75493       -1.67995
C         -9.29679       -9.68778       -2.16527
C         -9.85988       -9.27048       -3.55177
N        -10.93521      -10.13978       -4.04237
C         -8.86836      -11.18510       -2.20078
N         -8.41689      -11.70055       -0.90637
C         -8.25812       -7.86973       -0.51089
C         -9.29348       -7.43492        0.22135
C         -9.12544       -6.34962        1.28546
C         -7.68754       -5.89960        1.52045
C         -6.65614       -6.34506        0.78778
C         -6.96163       -7.23230       -0.29266
C         -6.21706       -7.55258       -1.35053
C         -4.92119       -7.06524       -1.74175
C         -4.47584       -7.40022       -2.96367
C         -9.70829       -6.82994        2.58161
C        -10.98787       -6.64123        2.94192
C        -11.52233       -7.15027        4.17753
C        -11.48801       -8.46992        4.46795
C        -11.86353       -8.68147        5.84818
C        -12.03823       -9.96202        6.41465
N        -12.19759      -11.02946        6.85103
C        -12.06659       -7.49520        6.45030
C        -11.90317       -6.45478        5.42883
C        -12.15380       -5.14037        5.59828
C        -12.26008       -4.37670        6.86040
C        -12.66494       -3.13476        6.51454
C        -12.85590       -3.05292        5.08241
C        -12.50385       -4.21467        4.51738
C        -13.40811       -1.91395        4.44113
N        -13.87746       -0.97210        3.96119
C        -11.78741       -4.66341        8.19788
C        -10.72459       -4.04884        8.75088
C        -10.31182       -4.27139       10.12419
C         -9.31616       -3.66090       10.78653
C         -9.21764       -3.79348       12.27887
O         -9.67243       -4.67212       12.97856
C         -8.48511       -2.58969       12.72734
C         -8.10308       -1.81150       11.61753
C         -8.33804       -2.63884       10.41027
C         -7.44879       -2.72895        9.38780
C         -6.41134       -1.77435        9.18515
N         -5.57408       -0.98039        9.02961
C         -7.37396       -3.91103        8.60493
N         -7.27374       -4.91411        8.01919
C         -7.54749       -0.55730       11.81799
C         -7.27934       -0.15599       13.13250
C         -7.57978       -0.99544       14.22015
C         -8.21190       -2.22146       14.03110
Cl        -7.15714       -0.49729       15.81111
H         -2.21206      -10.49836      -15.41804
H         -4.43349      -10.04628      -16.32045
H         -6.19910      -10.41392      -12.40789
H         -0.67658      -11.32963       -9.73797
H         -1.65487      -13.47386       -8.15849
H         -4.16208      -11.00544       -5.70694
H         -6.44172       -7.22118       -8.29206
H         -2.97672       -8.88626      -10.16177
H         -6.67745       -8.79617       -6.12115
H         -3.70274       -8.40151       -5.37956
H         -6.95885       -9.52841       -4.09687
H        -10.13206       -9.62544       -1.45437
H         -9.07427       -9.29202       -4.31078
H        -10.23562       -8.24295       -3.50540
H        -11.25109       -9.81275       -4.95536
H        -11.74210      -10.09305       -3.42246
H         -8.08255      -11.35221       -2.94611
H         -9.72126      -11.80416       -2.50515
H         -9.11493      -11.48998       -0.19607
H         -8.36029      -12.71784       -0.95863
H        -10.29970       -7.78023        0.01357
H         -9.67523       -5.46340        0.93992
H         -7.49208       -5.18566        2.31522
H         -5.63337       -6.03692        0.97123
H         -4.35973       -6.40630       -1.09210
H         -3.52895       -7.00161       -3.31704
H         -9.02889       -7.38077        3.23245
H        -11.67697       -6.13040        2.27787
H        -11.14983       -9.25733        3.80771
H        -12.43299       -7.35732        7.45275
H        -12.76597       -2.28300        7.17158
H        -12.62415       -4.46251        3.47453
H        -12.37321       -5.38280        8.76383
H        -10.17905       -3.31348        8.16333
H        -10.94455       -4.95954       10.68952
H         -7.29510        0.10832       10.99749
H         -6.80855        0.81062       13.30672
H         -8.47099       -2.87169       14.85947
