152

C         -2.69609       -6.03359        5.60928
C         -3.59256       -5.00702        5.89606
O         -3.36647       -3.79285        5.30291
C         -4.27449       -2.73514        5.63638
C         -4.17580       -1.61931        4.61304
C         -4.66433       -5.30681        6.71056
C         -4.88678       -6.61362        7.18939
C         -6.24612       -6.83749        7.82679
C         -7.38816       -6.54588        6.83783
C         -3.90050       -7.61937        7.02333
O         -4.12391       -8.74376        7.77044
C         -3.19734       -9.81152        7.94243
C         -2.49894       -9.81134        9.29098
C         -2.82197       -7.33791        6.16539
C         -1.74664       -8.26535        5.78214
C         -1.87094       -9.35386        4.99425
C         -0.74800      -10.21016        4.65136
C         -0.79801      -11.56320        4.72578
C          0.50561      -12.13489        4.43559
C          0.78478      -13.52464        4.36778
N          1.01662      -14.65939        4.27853
C          1.38595      -11.14429        4.20701
C          0.64928       -9.87524        4.27657
C          1.15714       -8.64414        4.04921
C          2.56598       -8.25155        4.03594
C          2.60605       -6.90215        4.02745
C          1.26090       -6.38349        3.93885
C          0.40402       -7.41085        3.86722
C          0.93055       -5.01517        3.85730
N          0.65639       -3.88948        3.79967
C          3.73965       -9.04453        3.89671
C          4.36075       -9.10738        2.71410
C          5.55263       -9.87938        2.47857
C          6.57182       -9.76212        3.35915
C          7.85593      -10.32893        3.05120
C          9.03748      -10.24512        3.71746
C          9.19995       -9.68546        5.13956
C         10.48776      -10.13416        5.85476
N         10.55496      -11.58034        6.05911
C          9.09837       -8.13328        5.31006
N          7.73132       -7.60509        5.39836
C          9.98577      -10.95644        2.81917
C         11.32780      -11.07137        2.76622
C         12.06439      -11.82717        1.64074
C         11.14056      -12.51694        0.65307
C          9.80660      -12.39724        0.69340
C          9.23762      -11.56130        1.71031
C          7.97959      -11.13290        1.82741
C          6.84351      -11.33609        0.96384
C          5.69928      -10.70074        1.26888
C         13.10386      -12.76462        2.22490
C         13.11441      -14.10963        2.24188
C         14.12517      -14.94295        2.86961
C         14.48055      -16.11841        2.29221
C         15.55928      -16.73663        3.02553
C         16.16331      -17.96379        2.66657
N         16.66287      -18.97333        2.37674
C         15.87936      -15.97274        4.08303
C         14.96698      -14.82334        4.11201
C         14.93197      -13.87479        5.07560
C         15.91133      -13.57595        6.15792
C         15.59752      -12.33794        6.59537
C         14.37931      -11.87963        5.99854
C         13.90690      -12.83043        5.18469
C         13.84302      -10.62518        6.35802
N         13.46616       -9.57934        6.67694
C         17.01394      -14.29438        6.75493
C         17.46571      -14.05443        8.00131
C         18.39255      -14.94683        8.72548
C         18.02949      -16.30663        8.83595
O         16.91233      -16.74802        8.17423
C         16.37412      -18.04330        8.44570
C         17.14741      -19.18856        7.79859
C         18.82986      -17.14827        9.57611
C         20.08147      -16.76016       10.06729
C         20.88333      -17.91237       10.62201
C         21.46109      -18.74461        9.47003
C         20.46888      -15.41322        9.95907
O         21.63799      -14.93976       10.52038
C         22.84246      -15.52117       10.00637
C         24.03482      -15.00593       10.79522
C         19.56279      -14.46838        9.38712
C         19.88887      -13.03691        9.46926
C         19.08888      -12.07486        9.98714
H         -1.86937       -5.79509        4.94561
H         -4.03076       -2.35068        6.63401
H         -5.31561       -3.07230        5.61202
H         -3.17693       -1.17587        4.60093
H         -4.90838       -0.83633        4.83717
H         -4.37886       -2.00561        3.60898
H         -5.39357       -4.54905        6.97614
H         -6.33662       -6.16428        8.68790
H         -6.36099       -7.85782        8.20168
H         -7.25997       -5.60213        6.29356
H         -8.34500       -6.47956        7.36435
H         -7.46411       -7.33715        6.08442
H         -2.42488       -9.89557        7.19900
H         -3.77874      -10.73259        7.83826
H         -3.10173       -9.36067       10.08083
H         -1.55154       -9.26252        9.22888
H         -2.24291      -10.84092        9.56912
H         -0.77723       -7.97662        6.18378
H         -2.85227       -9.67590        4.65285
H         -1.64424      -12.16546        5.02233
H          2.41376      -11.28167        3.92068
H          3.49498       -6.28981        3.97308
H         -0.65133       -7.33854        3.67511
H          4.07504       -9.61291        4.75994
H          3.99021       -8.54324        1.85939
H          6.46867       -9.16265        4.24855
H          8.38231      -10.11888        5.73779
H         10.55146       -9.67128        6.84690
H         11.34658       -9.76623        5.29061
H         10.43853      -12.06224        5.16912
H         11.46691      -11.82945        6.42713
H          9.63512       -7.62073        4.50673
H          9.57455       -7.83418        6.25274
H          7.25432       -8.02918        6.19521
H          7.76058       -6.60409        5.58851
H         11.96000      -10.56513        3.48278
H         12.61599      -11.07189        1.06443
H         11.59063      -13.11021       -0.13751
H          9.16543      -12.89632       -0.02309
H          6.92514      -11.95620        0.08138
H          4.82922      -10.80282        0.62758
H         13.93118      -12.23264        2.68942
H         12.33409      -14.65295        1.70761
H         14.07906      -16.52951        1.37441
H         16.63609      -16.23085        4.79888
H         16.09053      -11.77076        7.37035
H         12.94205      -12.84205        4.70823
H         17.42668      -15.13557        6.22041
H         17.06450      -13.24980        8.60577
H         15.37398      -18.03764        7.99733
H         16.22544      -18.18858        9.52173
H         17.45403      -18.93852        6.77951
H         16.53690      -20.09582        7.78800
H         18.05923      -19.44738        8.34224
H         18.52739      -18.16805        9.76881
H         20.21785      -18.55687       11.21092
H         21.64370      -17.58787       11.33394
H         20.66449      -19.19202        8.86203
H         22.07770      -19.56000        9.85549
H         22.06961      -18.14252        8.78591
H         22.95685      -15.30058        8.94013
H         22.86661      -16.59803       10.13303
H         24.94201      -15.55096       10.51155
H         23.87647      -15.14117       11.87096
H         24.19456      -13.94000       10.61648
H         20.87551      -12.73459        9.12547
H         18.10765      -12.30215       10.39442
H         19.40057      -11.03843       10.03290
