122

C          8.59393        5.87656        4.67452
S          9.47958        6.03107        3.22479
C          9.87879        4.35490        3.19773
C          9.34080        3.70183        4.30001
C          8.58775        4.58470        5.15238
C          7.84800        4.10696        6.36945
C          8.19010        2.65772        6.74676
C          8.31943        1.74193        5.51567
O          7.04980        1.72838        4.84481
C          6.97793        0.83775        3.74129
C          9.48188        2.23911        4.62750
C         10.65528        3.82999        2.11708
C          9.99663        3.35357        1.04069
C         10.69627        2.78644       -0.08580
C         12.16026        2.69032       -0.12693
C         12.97004        3.10642        0.85252
S         12.39561        3.82533        2.32992
C         12.49720        2.10755       -1.36166
C         11.35020        1.85280       -2.07519
C         11.59402        1.25542       -3.32304
C         12.96039        1.10081       -3.51151
S         13.89358        1.66017       -2.16219
C         10.23108        2.28941       -1.27173
C          8.84112        2.18797       -1.64638
C          8.37995        2.19226       -2.90718
C          6.97590        2.12765       -3.29915
C          6.68904        2.14386       -4.62778
C          5.31015        2.12553       -5.08393
C          4.75955        2.09412       -6.32562
C          5.37593        1.89915       -7.69950
C          5.78184        3.23962       -8.36083
N          6.82973        3.97985       -7.65411
C          6.54151        0.87352       -7.76879
N          6.14102       -0.48367       -7.37935
C          3.31237        2.23602       -6.09385
C          2.27849        2.39731       -6.93486
C          0.84165        2.57223       -6.43717
C          0.69629        2.48476       -4.92093
C          1.73608        2.32006       -4.08526
C          3.04730        2.24527       -4.66037
C          4.24359        2.17461       -4.06275
C          4.57016        2.11744       -2.66587
C          5.86793        2.08156       -2.31985
C         -0.05869        1.54830       -7.08300
C         -1.13317        1.83958       -7.83861
C         -2.02411        0.85644       -8.46366
C         -2.26766       -0.32682       -7.86351
C         -3.14885       -1.31482       -8.42429
C         -3.88756       -1.08292       -9.67119
C         -3.80409        0.03205      -10.39533
S         -2.79615        1.38463       -9.95615
C         -4.66104       -2.23946       -9.89834
C         -4.44796       -3.14235       -8.88369
C         -5.17626       -4.33373       -9.04500
C         -5.95022       -4.26641      -10.19432
S         -5.74422       -2.77287      -11.05361
C         -3.50132       -2.55116       -7.95797
C         -2.98639       -3.18182       -6.75857
C         -3.65993       -4.08985       -6.03820
C         -3.10773       -4.68424       -4.87360
S         -2.25959       -6.17211       -5.00162
C         -2.09320       -6.31039       -3.30922
C         -2.67256       -5.25498       -2.64013
C         -3.22304       -4.28391       -3.55167
C         -3.92206       -3.04502       -3.06266
C         -3.68514       -2.79957       -1.56631
C         -3.86173       -4.08745       -0.74268
O         -5.13836       -4.71095       -0.95070
C         -6.25463       -3.92670       -0.55940
C         -2.76123       -5.09752       -1.14429
H          8.10432        6.74136        5.10133
H          6.77094        4.18680        6.17565
H          8.06923        4.76169        7.22122
H          7.40968        2.28068        7.41886
H          9.13365        2.64055        7.30741
H          8.53468        0.72243        5.85940
H          5.95171        0.84564        3.36375
H          7.23222       -0.18127        4.04579
H          7.62769        1.16625        2.92607
H          9.55312        1.64789        3.71045
H         10.42729        2.10273        5.16845
H          8.91295        3.39892        1.00163
H         14.04336        3.00960        0.75023
H         10.85799        0.95446       -4.05445
H         13.45925        0.68305       -4.37740
H          8.15157        2.13296       -0.81147
H          9.08370        2.29089       -3.72959
H          7.47286        2.24137       -5.36922
H          4.59490        1.47461       -8.34744
H          4.90097        3.88471       -8.45953
H          6.13804        3.04377       -9.38029
H          6.48859        4.21416       -6.71979
H          6.96898        4.87755       -8.11968
H          7.39382        1.17833       -7.15855
H          6.91414        0.82025       -8.79850
H          5.88835       -0.48859       -6.39012
H          6.94144       -1.10829       -7.46898
H          2.43316        2.43921       -8.00913
H          0.52091        3.58175       -6.72447
H         -0.30205        2.57766       -4.50297
H          1.60616        2.26666       -3.01121
H          3.79003        2.08847       -1.91694
H          6.10821        2.03310       -1.26527
H          0.21327        0.51200       -6.88978
H         -1.37856        2.88560       -8.02606
H         -1.80282       -0.57260       -6.91372
H         -4.38331        0.13640      -11.30828
H         -5.16474       -5.19234       -8.38696
H         -6.62532       -5.01938      -10.57819
H         -1.99245       -2.87541       -6.43810
H         -4.66919       -4.38841       -6.29872
H         -1.60005       -7.17359       -2.88363
H         -4.99714       -3.14571       -3.25531
H         -3.57272       -2.17096       -3.62414
H         -4.36552       -2.01516       -1.21829
H         -2.66804       -2.41557       -1.41220
H         -3.75761       -3.87059        0.32765
H         -7.15957       -4.51639       -0.73042
H         -6.33521       -3.02148       -1.16677
H         -6.19535       -3.66877        0.50099
H         -2.96064       -6.07248       -0.68392
H         -1.78862       -4.74225       -0.78089
