98

C          2.86363      -10.72565       -7.16325
S          1.46212       -9.98017       -6.53499
C          1.38496      -11.05544       -5.17565
C          2.42393      -11.96793       -5.25837
C          3.26681      -11.77424       -6.37878
O          4.32473      -12.54132       -6.72296
C          4.73813      -13.51846       -5.88175
O          5.37254      -14.49643       -6.25443
C          4.51901      -13.27258       -4.38320
O          5.38547      -13.14497       -3.54265
S          2.80107      -13.25995       -4.13320
C          0.34939      -10.95743       -4.19582
C         -0.23247       -9.79663       -3.85480
C         -1.25045       -9.69499       -2.86129
C         -2.61441       -9.14016       -3.05687
N         -3.38578       -9.10207       -2.00686
C         -2.59061       -9.61347       -1.03107
C         -1.29220       -9.96922       -1.55903
C         -0.43403      -10.48156       -0.44368
S          1.13466      -11.02174       -0.50273
C         -1.35377      -10.35841        0.73069
C         -2.62853       -9.84462        0.27747
N         -3.48746       -9.69087        1.31656
C         -2.77003      -10.06491        2.33788
C         -1.37968      -10.50118        2.05403
C         -0.40010      -10.88495        3.03390
C         -0.08624       -9.99379        4.01253
C          0.95069      -10.30078        4.98205
C          1.44349       -9.60521        6.04516
C          0.92592       -8.37536        6.78681
C          1.51259       -7.03111        6.29255
N          1.13022       -6.67340        4.92603
C         -0.62445       -8.25201        6.87177
N         -1.27158       -9.35443        7.58874
C          2.60485      -10.39789        6.48971
C          3.62021      -10.11881        7.32640
C          4.75102      -11.11780        7.60769
C          4.59322      -12.44864        6.87965
C          3.59371      -12.70909        6.02062
C          2.63960      -11.66485        5.76273
C          1.66554      -11.59168        4.84920
C          1.25609      -12.54792        3.85083
C          0.27575      -12.20019        2.99828
C          4.82756      -11.38028        9.09296
C          5.91163      -11.20720        9.86921
C          5.93259      -11.46233       11.28124
C          4.79252      -11.91447       12.12847
N          5.02886      -12.07486       13.39615
C          6.33589      -11.74510       13.50108
C          6.88618      -11.37850       12.21528
C          8.33970      -11.04004       12.39833
S          9.46595      -10.60570       11.25853
C          8.52748      -11.23060       13.87582
C          7.26460      -11.66782       14.44613
N          7.37772      -11.87123       15.78296
C          8.62378      -11.57308       16.01853
C          9.42908      -11.14213       14.85091
C         10.77583      -10.74863       14.85008
S         11.18800       -9.10597       15.16799
C         12.88538       -9.39924       15.06683
C         13.11363      -10.74198       14.84782
C         11.92384      -11.50017       14.69284
O         11.87173      -12.82200       14.39680
C         13.01424      -13.55046       14.37572
O         13.13726      -14.59007       13.74314
C         14.12212      -13.10710       15.34321
O         14.53058      -13.72060       16.30259
S         14.66454      -11.55654       14.77868
C         13.78981       -8.32052       15.26901
C         14.21302       -7.57502       14.24060
H          3.30989      -10.36596       -8.08016
H          0.05348      -11.87653       -3.69197
H          0.04641       -8.85643       -4.32529
H         -2.91934       -8.79725       -4.05786
H         -3.13475      -10.07560        3.37564
H         -0.52516       -9.00327        4.02671
H          1.25773       -8.47609        7.83180
H          2.60458       -7.03505        6.37738
H          1.15539       -6.23006        6.95437
H          1.54560       -7.34621        4.28048
H          1.54609       -5.77125        4.69136
H         -1.06793       -8.16877        5.87738
H         -0.89204       -7.32533        7.39474
H         -0.84451      -10.24143        7.32592
H         -2.24682       -9.40971        7.29424
H          3.69267       -9.14912        7.80693
H          5.69002      -10.66911        7.25708
H          5.34242      -13.21505        7.06428
H          3.50987      -13.66484        5.51654
H          1.73477      -13.51798        3.79648
H         -0.03863      -12.90767        2.23301
H          3.89666      -11.75039        9.51738
H          6.83874      -10.85370        9.42011
H          3.80981      -12.10147       11.67459
H          9.09084      -11.63159       17.01328
H         14.13184       -8.10384       16.27791
H         13.89678       -7.75380       13.21719
H         14.89586       -6.74589       14.40730
