114

C          3.26799       -2.01212       -5.39028
S          2.75744       -3.61530       -5.68874
C          2.37447       -3.89676       -4.01994
C          2.68738       -2.76981       -3.27719
C          3.18264       -1.69804       -4.05874
O          3.50357       -0.46446       -3.60580
C          3.47588       -0.22145       -2.27319
O          3.28171        0.88756       -1.79539
C          3.85581       -1.39434       -1.36350
O          4.82778       -1.47308       -0.64238
S          2.58857       -2.55885       -1.53849
C          1.88258       -5.18753       -3.66539
C          1.01357       -5.37920       -2.65911
C          0.54585       -6.67257       -2.21369
C          0.35355       -7.69645       -3.07963
C         -0.18698       -8.84488       -2.39622
C         -0.48700      -10.07275       -3.02913
N         -0.73582      -11.06946       -3.56426
C         -0.36208       -8.54964       -1.09838
C          0.07247       -7.16363       -0.88032
C          0.07669       -6.52433        0.32149
C         -0.34302       -7.05145        1.63927
C         -0.09751       -6.08707        2.54987
C          0.44762       -4.92635        1.89406
C          0.54813       -5.16814        0.58029
C          0.78052       -3.71761        2.54632
N          1.04501       -2.72012        3.07609
C         -0.96259       -8.29653        2.01438
C         -0.44815       -9.12576        2.92400
C         -1.00714      -10.42639        3.26435
C         -0.75440      -10.90561        4.50801
C         -1.08660      -12.27640        4.82547
C         -0.88795      -12.98635        5.96535
C         -0.46503      -12.42986        7.31296
C         -1.72305      -11.99174        8.11419
N         -2.62263      -13.09374        8.46216
C          0.47701      -13.33069        8.14005
N          1.01726      -12.70461        9.35584
C         -1.17924      -14.36723        5.56789
C         -0.78814      -15.55080        6.06873
C         -0.94558      -16.83900        5.26874
C         -1.98125      -16.74588        4.15759
C         -2.36996      -15.56145        3.65036
C         -1.81318      -14.37688        4.24814
C         -1.70842      -13.12455        3.78944
C         -2.06835      -12.55563        2.51898
C         -1.71067      -11.28062        2.27651
C         -1.19664      -17.99855        6.18904
C         -0.39636      -19.07918        6.25356
C         -0.58436      -20.13011        7.22079
C          0.37842      -20.42422        8.12555
C         -0.13143      -21.36207        9.10596
C          0.61327      -21.86385       10.20042
N          1.22553      -22.27967       11.09376
C         -1.41141      -21.65541        8.81960
C         -1.77352      -20.93578        7.59164
C         -2.94556      -21.04179        6.92716
C         -4.17500      -21.73561        7.36377
C         -5.07629      -21.59207        6.36787
C         -4.47892      -20.86549        5.26810
C         -3.22331      -20.52619        5.58836
C         -5.14182      -20.56454        4.06018
N         -5.69612      -20.31490        3.06786
C         -4.55209      -22.20673        8.66932
C         -5.13017      -23.38813        8.94012
C         -5.47897      -23.77662       10.27400
S         -6.25605      -25.29819       10.53347
C         -6.35706      -25.09415       12.25130
C         -5.81731      -23.86979       12.59596
C         -5.31460      -23.13975       11.49130
O         -4.67681      -21.94848       11.58593
C         -4.65593      -21.26057       12.74389
O         -3.82393      -20.40549       12.98926
C         -5.83816      -21.48234       13.68673
O         -6.65865      -20.65373       14.02503
S         -5.73511      -23.13159       14.18990
C         -6.97578      -26.12872       13.01647
C         -6.66579      -26.37031       14.29667
H          3.60404       -1.38525       -6.20492
H          2.24157       -6.03260       -4.24996
H          0.60341       -4.52934       -2.13142
H          0.54556       -7.68692       -4.14358
H         -0.74631       -9.23599       -0.36697
H         -0.30431       -6.13788        3.60991
H          0.91027       -4.45261       -0.13079
H         -1.89378       -8.53176        1.50309
H          0.48748       -8.86755        3.42924
H         -0.21127      -10.32304        5.24397
H          0.10327      -11.50780        7.12471
H         -2.28725      -11.24034        7.54743
H         -1.42346      -11.49210        9.04113
H         -3.14522      -13.35647        7.62316
H         -3.31967      -12.76880        9.13026
H          1.32949      -13.63208        7.52012
H         -0.04832      -14.23225        8.46090
H          0.25736      -12.28341        9.88882
H          1.35876      -13.45229        9.96336
H         -0.20829      -15.62718        6.97628
H          0.01977      -17.00523        4.76829
H         -2.35100      -17.66284        3.70949
H         -3.06689      -15.48516        2.82409
H         -2.57184      -13.15645        1.77160
H         -1.92710      -10.85637        1.30207
H         -2.05032      -17.91304        6.85788
H          0.47920      -19.16243        5.61081
H          1.35803      -19.97147        8.18665
H         -2.02803      -22.34160        9.37524
H         -6.11911      -21.87567        6.40515
H         -2.53484      -20.01203        4.93964
H         -4.31300      -21.48243        9.43963
H         -5.33372      -24.08068        8.12438
H         -7.72403      -26.75761       12.53711
H         -5.90451      -25.82441       14.84190
H         -7.17314      -27.15283       14.85135
