135

C          4.11303        5.83757       -2.20319
C          3.59764        6.56947       -1.00124
O          3.73779        7.77086       -0.78408
O          2.98948        5.69881       -0.14519
C          3.14834        4.35475       -0.63663
C          3.32578        4.54179       -2.12990
C          3.94802        3.34531       -2.83616
C          5.19842        2.81564       -2.14229
C          5.00879        2.54981       -0.65135
C          4.33754        3.69323        0.08765
O          3.86274        3.08798        1.30008
C          3.62210        1.75551        1.08888
O          3.02785        1.04764        1.88486
C          4.13214        1.35098       -0.27932
C          4.86278        0.02013       -0.30939
C          6.00703       -0.21828        0.47933
C          6.64314       -1.45255        0.39650
C          6.15038       -2.45794       -0.45973
C          5.02834       -2.24323       -1.23901
C          4.38748       -1.00405       -1.16060
C          6.98437       -3.62826       -0.35062
C          8.02500       -3.37219        0.56136
C          7.89820       -1.95956        1.14577
C          7.67157       -2.00079        2.68159
C          6.40115       -2.71421        3.15773
C          9.10354       -1.04497        0.75513
C         10.50405       -1.45351        1.20788
C          8.95798       -4.35324        0.86341
C          8.91038       -5.58542        0.20127
C          7.83372       -5.83144       -0.68845
C          6.86329       -4.86297       -0.95838
C          9.94983       -6.60472        0.45341
S          9.43573       -8.23683        0.51860
C         11.02011       -8.88380        0.73453
C         11.92733       -7.84777        0.85000
C         11.31271       -6.53853        0.69902
C         12.04957       -5.34355        0.76567
C         13.42612       -5.52946        1.01577
S         14.46749       -4.07029        1.17279
C         14.01215       -6.82775        1.15406
O         15.36741       -6.94893        1.37583
C         13.30086       -8.04095        1.06823
C         11.17863      -10.29908        0.83545
C         10.36738      -11.13308        0.16339
C         10.37399      -12.59018        0.26059
C          9.87173      -13.31463       -0.83213
C          9.82545      -14.69228       -0.73928
C         10.26012      -15.34964        0.42996
C         10.72898      -14.64187        1.52202
C         10.77149      -13.25294        1.43598
C         10.10917      -16.77065        0.25805
C          9.59264      -17.02280       -1.02536
C          9.32536      -15.70825       -1.76814
C         10.09163      -15.62486       -3.11647
C         11.61238      -15.70198       -3.02679
C          7.80503      -15.53063       -2.06158
C          6.88086      -15.50117       -0.84551
C          9.38497      -18.31862       -1.45925
C          9.62544      -19.38767       -0.57936
C         10.13097      -19.11423        0.71229
C         10.39147      -17.80511        1.12926
C          9.36511      -20.82294       -0.98598
C          9.48976      -21.04856       -2.47994
O         10.52458      -21.02494       -3.12490
O          8.25083      -21.21990       -3.04084
C          7.22558      -21.17719       -2.03343
C          7.97215      -21.41255       -0.73452
C          7.18454      -21.03130        0.51225
C          6.45975      -19.69200        0.44200
C          5.70844      -19.44499       -0.85929
C          6.43098      -19.86305       -2.12595
O          5.37996      -20.00854       -3.09979
C          4.18302      -20.18359       -2.46830
O          3.12388      -20.37264       -3.04113
C          4.37991      -20.16376       -0.98273
H          5.19214        5.69716       -2.09792
H          3.88763        6.38753       -3.12063
H          2.21639        3.81704       -0.42707
H          2.33982        4.73423       -2.57741
H          4.19039        3.61116       -3.87186
H          3.20403        2.54118       -2.89121
H          6.00274        3.55240       -2.26064
H          5.54313        1.90757       -2.65001
H          6.00679        2.41326       -0.21333
H          5.08333        4.44682        0.36736
H          3.24646        1.30704       -0.92578
H          6.39527        0.53992        1.15307
H          4.64764       -3.01748       -1.89747
H          3.50159       -0.84914       -1.77378
H          7.63573       -0.97561        3.06997
H          8.52477       -2.48784        3.17049
H          5.49589       -2.21994        2.79171
H          6.35520       -2.69639        4.25226
H          6.37354       -3.76274        2.84592
H          8.92366       -0.03641        1.14994
H          9.14319       -0.93710       -0.33748
H         10.57819       -1.58272        2.29074
H         11.22776       -0.68310        0.91544
H         10.83217       -2.36746        0.71339
H          9.70806       -4.16161        1.62122
H          7.72443       -6.79589       -1.18242
H          6.03869       -5.08758       -1.62692
H         11.62852       -4.36122        0.63920
H         13.65319       -3.21600        0.53383
H         15.72697       -6.04177        1.41276
H         13.80064       -8.99631        1.15641
H         11.96416      -10.67758        1.48171
H          9.61101      -10.74938       -0.51833
H          9.52162      -12.81415       -1.72813
H         11.04651      -15.14302        2.42868
H         11.09921      -12.69243        2.30854
H          9.83729      -14.68530       -3.62574
H          9.75038      -16.42974       -3.78151
H         12.02573      -14.83096       -2.50987
H         12.04112      -15.71728       -4.03465
H         11.94534      -16.60647       -2.51094
H          7.46417      -16.33870       -2.72300
H          7.64609      -14.59638       -2.61700
H          6.98071      -16.40167       -0.23427
H          5.83791      -15.43917       -1.17449
H          7.07536      -14.62870       -0.21483
H          9.04862      -18.47474       -2.47849
H         10.33883      -19.92396        1.41043
H         10.80160      -17.60880        2.11447
H         10.11167      -21.46478       -0.49934
H          6.55764      -22.02337       -2.23472
H          8.13814      -22.50057       -0.66752
H          7.83412      -21.05903        1.39459
H          6.42704      -21.80950        0.67739
H          7.18182      -18.88355        0.58917
H          5.76527      -19.61866        1.28846
H          5.49364      -18.36846       -0.92490
H          7.05018      -19.04654       -2.49453
H          4.40855      -21.19164       -0.61277
H          3.57936      -19.60041       -0.49602
