144

C        -10.39284       -0.91072        4.24764
S         -9.68363       -2.44273        4.14438
C         -8.27397       -1.90973        3.25624
C         -8.35206       -0.50343        3.14056
C         -9.62557        0.02621        3.62042
C        -10.06390        1.35113        3.52111
C         -9.12432        2.20314        2.90777
O         -9.39358        3.55732        2.94118
C        -10.43553        3.95467        2.04704
C         -7.83968        1.74176        2.45478
O         -6.86087        2.57708        1.94362
C         -7.30690        3.62529        1.08569
C         -7.40454        0.37497        2.55895
C         -7.45190       -3.00987        2.58722
C         -7.41975       -4.39920        2.94464
C         -7.49360       -5.05467        4.32587
O         -8.25834       -4.67971        5.19647
C         -6.50870       -6.14321        4.62204
C         -5.15895       -5.89853        4.37946
S         -4.12839       -7.19961        4.74207
C         -5.44390       -8.14868        5.22965
C         -6.68498       -7.51940        5.12296
C         -7.84521       -8.40485        5.35495
O         -7.81055       -9.53803        4.86356
C         -9.01967       -8.11667        6.22569
C         -9.96938       -9.14842        6.40309
C        -11.12933       -8.95195        7.15667
C        -11.36500       -7.71201        7.73613
C        -10.41202       -6.70158        7.61324
C         -9.22700       -6.91675        6.89615
C         -7.20524       -5.35033        1.92993
C         -6.76330       -4.98684        0.66313
C         -6.49156       -3.65545        0.35197
C         -6.89437       -2.69074        1.30813
C         -5.73823       -3.30252       -0.91047
C         -5.71334       -4.17191       -1.96450
C         -4.76682       -4.02333       -3.06451
C         -4.44293       -4.81115       -4.13977
C         -5.00507       -6.12745       -4.70180
C         -6.28570       -6.71345       -4.03923
N         -6.06979       -7.36217       -2.73989
C         -5.30613       -6.07233       -6.23669
N         -6.28395       -5.06103       -6.63690
C         -3.27480       -4.12835       -4.75068
C         -2.47456       -4.43940       -5.78632
C         -1.36642       -3.51265       -6.27834
C         -1.07288       -2.35671       -5.33574
C         -1.84430       -2.05824       -4.28014
C         -2.97310       -2.90980       -4.00785
C         -3.86573       -2.84896       -3.01429
C         -4.00533       -1.86526       -1.97031
C         -4.89437       -2.08765       -0.98594
C         -1.67512       -3.02636       -7.68478
C         -2.16540       -1.81616       -8.02382
C         -2.33482       -1.33773       -9.41131
C         -3.36771       -0.47569       -9.80550
C         -4.30751        0.09412       -8.83583
O         -3.93287        1.14464       -8.30399
C         -5.61997       -0.48774       -8.51327
C         -6.35001        0.10946       -7.50240
S         -7.85287       -0.61259       -7.18103
C         -7.57942       -1.76799       -8.40079
C         -6.38200       -1.60517       -9.08679
C         -6.02022       -2.51857      -10.17991
O         -4.86333       -2.84404      -10.42132
C         -7.11618       -3.15470      -10.97165
C         -7.03871       -4.52505      -11.24257
C         -8.09444       -5.16757      -11.89408
C         -9.22063       -4.44273      -12.28831
C         -9.28397       -3.06866      -12.06026
C         -8.22907       -2.42127      -11.41240
C         -3.39327        0.05011      -11.10213
C         -2.44458       -0.36043      -12.04688
C         -1.41332       -1.25726      -11.71499
C         -1.34937       -1.65958      -10.36901
C         -0.41493       -1.73916      -12.72110
S         -0.19430       -0.80318      -14.18047
C          1.00610       -1.83479      -14.81080
C          1.29061       -2.84726      -13.93715
C          0.44606       -2.83769      -12.76314
C          0.53314       -3.84854      -11.78691
C          1.58147       -4.77492      -12.01033
O          1.89572       -5.77047      -11.10289
C          0.93002       -6.08230      -10.10959
C          2.44022       -4.73039      -13.16986
O          3.40390       -5.72102      -13.21600
C          4.55105       -5.45024      -14.01089
C          2.28828       -3.78569      -14.20872
H        -11.34610       -0.78771        4.74162
H        -11.00725        1.70920        3.91152
H        -10.28176        3.55472        1.03952
H        -10.40151        5.04833        1.97496
H        -11.42346        3.67519        2.42359
H         -6.44910        3.96404        0.49666
H         -7.65151        4.49512        1.65342
H         -8.06894        3.27863        0.37958
H         -6.40923        0.09738        2.24097
H         -4.71230       -4.99738        3.98173
H         -5.26415       -9.17311        5.53815
H         -9.80868      -10.13076        5.95810
H        -11.84484       -9.76157        7.27988
H        -12.28098       -7.53614        8.29432
H        -10.58825       -5.73340        8.07610
H         -8.48997       -6.12558        6.87957
H         -7.34081       -6.41378        2.12605
H         -6.57257       -5.79382       -0.03871
H         -6.81454       -1.64926        1.01542
H         -6.31553       -5.06631       -1.96555
H         -4.20811       -6.87615       -4.57819
H         -6.71846       -7.48516       -4.68860
H         -7.05251       -5.93704       -3.94191
H         -6.97244       -7.68635       -2.39043
H         -5.50795       -8.20301       -2.87101
H         -5.67115       -7.05280       -6.56876
H         -4.39976       -5.91896       -6.82079
H         -5.97794       -4.15313       -6.27732
H         -6.25597       -4.96968       -7.65198
H         -2.56761       -5.36962       -6.32942
H         -0.44384       -4.10855       -6.32710
H         -0.20166       -1.74443       -5.55646
H         -1.61253       -1.22601       -3.62845
H         -3.40453       -0.96138       -1.99388
H         -4.99061       -1.33585       -0.20895
H         -1.45247       -3.75131       -8.46509
H         -2.44008       -1.10265       -7.24746
H         -6.03492        0.96188       -6.90736
H         -8.33752       -2.52464       -8.55329
H         -6.16735       -5.10085      -10.93368
H         -8.04280       -6.23526      -12.08861
H        -10.04970       -4.95200      -12.77895
H        -10.15812       -2.50518      -12.37998
H         -8.29358       -1.34904      -11.24624
H         -4.13077        0.80047      -11.37806
H         -2.52236        0.06792      -13.04333
H         -0.47815       -2.19983      -10.01653
H          1.44784       -1.62812      -15.77611
H         -0.12294       -3.92768      -10.93944
H          1.30925       -6.92893       -9.52929
H         -0.01648       -6.38614      -10.56807
H          0.78517       -5.24996       -9.41303
H          4.32569       -5.59548      -15.07186
H          5.32769       -6.16930      -13.73300
H          4.94812       -4.44600      -13.82593
H          2.88306       -3.77823      -15.10992
