120

C         -5.08126        0.93097        3.79129
S         -4.38666       -0.61434        3.60354
C         -5.62740       -1.15965        2.51407
C         -6.56120       -0.14647        2.34150
C         -6.25349        1.05907        3.09244
C         -7.05696        2.21358        3.07630
S         -6.73598        3.67625        3.99466
C         -8.18437        2.07199        2.23796
C         -8.48396        0.88994        1.49382
C         -7.68493       -0.27446        1.51311
C         -5.60006       -2.48660        1.98524
C         -4.45463       -3.15792        1.78307
C         -4.44709       -4.51555        1.24889
C         -4.52434       -5.60582        2.12278
C         -4.49844       -6.87721        1.57628
C         -4.39177       -7.06524        0.17813
C         -4.31683       -5.99104       -0.68343
C         -4.34592       -4.70785       -0.13966
C         -4.40283       -8.48106       -0.10728
C         -4.51621       -9.19703        1.10067
C         -4.56007       -8.22947        2.29016
C         -3.33495       -8.42742        3.22901
C         -1.96462       -8.15686        2.60616
C         -5.87251       -8.40424        3.10407
C         -7.16627       -8.14157        2.33298
C         -4.60743      -10.58050        1.10260
C         -4.56876      -11.26044       -0.12315
C         -4.43151      -10.53227       -1.32305
C         -4.34882       -9.13955       -1.32080
C         -4.66428      -12.71823       -0.17034
N         -4.20144      -13.50904        0.86658
C         -4.36952      -14.81437        0.51692
C         -4.14193      -16.12260        0.98411
C         -4.59904      -16.94062       -0.03625
N         -5.09903      -16.16986       -1.05810
C         -4.94108      -14.86333       -0.70701
C         -5.15573      -13.54592       -1.17216
C         -4.64139      -18.33996       -0.21069
C         -4.73270      -19.15083        0.85470
C         -4.77987      -20.61040        0.74912
C         -4.28682      -21.37793        1.81660
C         -4.34637      -22.75930        1.71711
C         -4.89645      -23.37995        0.57437
C         -5.39817      -22.63206       -0.47233
C         -5.34534      -21.24546       -0.37445
C         -4.83004      -24.80785        0.73376
C         -4.24138      -25.12037        1.97132
C         -3.88970      -23.82499        2.72071
C         -2.36772      -23.72910        3.01946
C         -1.44422      -23.74508        1.80248
C         -4.67443      -23.72039        4.05760
C         -6.19811      -23.70758        3.93839
C         -4.07082      -26.44450        2.38207
C         -4.43099      -27.49258        1.51972
C         -5.04619      -27.13288        0.28563
C         -5.26047      -25.80855       -0.10736
C         -4.29829      -28.93705        1.88889
S         -5.69597      -29.88495        1.45357
C         -5.06098      -31.38711        1.95511
C         -3.79253      -31.18307        2.46497
C         -3.34878      -29.76521        2.49396
C         -2.07483      -29.43864        3.05134
S         -1.34207      -27.85113        3.26379
C         -1.33851      -30.55952        3.52370
C         -1.78711      -31.90078        3.46609
C         -3.03271      -32.26600        2.94213
C         -5.82269      -32.59249        1.79498
C         -7.16127      -32.62447        1.79548
H         -4.57228        1.65123        4.41602
H         -6.18945        3.08585        5.06687
H         -8.87658        2.91080        2.15124
H         -9.38352        0.89116        0.87643
H         -7.94161       -1.14900        0.92881
H         -6.54836       -2.95257        1.72689
H         -3.47438       -2.74669        1.98913
H         -4.59388       -5.46119        3.19787
H         -4.23717       -6.12999       -1.75567
H         -4.28454       -3.84604       -0.80724
H         -3.33392       -9.44976        3.62330
H         -3.43268       -7.76287        4.10194
H         -1.80358       -8.74311        1.69698
H         -1.17332       -8.42166        3.31560
H         -1.83615       -7.09718        2.36280
H         -5.86054       -7.73114        3.97305
H         -5.92008       -9.42275        3.51034
H         -7.24468       -7.09391        2.02827
H         -8.02977       -8.36124        2.96927
H         -7.24643       -8.76900        1.44086
H         -4.73621      -11.11194        2.04002
H         -4.38126      -11.05352       -2.27699
H         -4.25189       -8.59787       -2.25538
H         -3.77819      -13.21316        1.73228
H         -3.68856      -16.43371        1.91533
H         -5.52086      -16.47312       -1.92878
H         -5.59568      -13.24004       -2.11041
H         -4.59143      -18.73481       -1.21895
H         -4.77694      -18.74452        1.86390
H         -3.86223      -20.90816        2.69721
H         -5.82906      -23.10200       -1.34917
H         -5.76182      -20.66164       -1.19172
H         -2.07327      -24.55646        3.67779
H         -2.16057      -22.80754        3.57963
H         -1.60306      -24.62850        1.17831
H         -0.39921      -23.75638        2.13113
H         -1.58082      -22.85225        1.18458
H         -4.37724      -22.80551        4.58736
H         -4.39154      -24.55682        4.70955
H         -6.55464      -22.76270        3.51636
H         -6.64746      -23.81118        4.93146
H         -6.57371      -24.52718        3.31975
H         -3.67596      -26.64142        3.36689
H         -5.41203      -27.90055       -0.39963
H         -5.76115      -25.58704       -1.04353
H         -0.49727      -27.91917        2.23015
H         -0.35839      -30.39134        3.97513
H         -1.13413      -32.68412        3.85384
H         -3.34898      -33.30170        2.93111
H         -5.28544      -33.53421        1.69584
H         -7.77376      -31.73573        1.91279
H         -7.69362      -33.56412        1.68816
