106

N          7.23554        9.16895        3.60094
C          6.26019        8.93402        4.50357
S          6.58194        9.24133        6.16653
C          5.02359        8.77414        6.60532
N          4.62839        8.85169        7.97217
O          3.61529        9.52044        8.21248
O          5.30078        8.21700        8.79385
C          4.24199        8.38629        5.54657
C          4.96987        8.45088        4.31048
C          4.41660        8.09639        3.02806
C          3.42566        7.20478        2.84455
C          2.90414        6.90824        1.48992
N          3.58169        7.04116        0.37687
C          2.71675        6.58884       -0.57059
C          1.47960        6.16435        0.03004
C          0.55486        5.70365       -1.03328
O         -0.57408        5.27093       -0.94108
C          1.36085        5.90167       -2.26320
C          2.65556        6.43474       -1.88855
N          3.40937        6.63443       -2.99861
C          2.61893        6.24904       -3.96172
C          1.27761        5.76155       -3.57675
C          1.51714        6.34470        1.34933
C          0.51770        6.13788        2.34993
C         -0.07271        4.95060        2.55275
C         -1.07200        4.69499        3.57616
C         -0.76978        3.76390        4.51532
C         -1.74219        3.41786        5.53021
C         -1.66484        2.54441        6.56766
C         -0.45986        1.71590        6.98484
C         -0.00480        2.09353        8.41914
N          1.22495        1.42218        8.85102
C         -0.69009        0.19570        6.76343
N          0.47769       -0.64250        7.08432
C         -2.98737        2.61760        7.21079
C         -3.52858        1.96479        8.25459
C         -4.96909        2.20589        8.73408
C         -5.66500        3.34524        7.99083
C         -5.13587        3.97829        6.93066
C         -3.81106        3.60988        6.51374
C         -3.06153        4.08068        5.50785
C         -3.34474        5.08261        4.50783
C         -2.39291        5.36636        3.59814
C         -5.77638        0.91505        8.67262
C         -7.10019        0.80188        8.44574
C         -7.76645       -0.52303        8.36654
N         -7.14482       -1.67445        8.44367
C         -8.14326       -2.58040        8.29998
C         -9.41154       -1.91804        8.13941
C        -10.47177       -2.94332        7.95939
O        -11.66560       -2.80643        7.81239
C         -9.70365       -4.20590        8.04444
C         -8.31047       -3.89838        8.25054
N         -7.59052       -5.04531        8.33113
C         -8.50401       -5.96975        8.18721
C         -9.89704       -5.51419        7.99863
C         -9.26316       -0.59929        8.18289
C        -10.20580        0.45442        7.97685
C        -11.50402        0.44020        8.32146
N        -12.44130        1.43155        8.09164
C        -12.49729        2.28839        7.02756
S        -11.94367        1.81268        5.45485
C        -12.29408        3.31796        4.78603
N        -12.00602        3.58394        3.40335
O        -12.35855        4.69029        2.97298
O        -11.42322        2.71256        2.74287
C        -12.86606        4.18141        5.68924
C        -13.00332        3.58480        6.98845
C        -13.56997        4.26088        8.12248
C        -13.52479        5.58532        8.33037
H          8.17757        9.36554        3.93193
H          7.19891        8.79708        2.65733
H          3.20821        8.07960        5.65198
H          4.83535        8.59934        2.15589
H          2.99024        6.65235        3.66855
H          2.89305        6.26906       -5.02778
H          0.48364        5.41400       -4.20836
H          0.25549        6.99478        2.96638
H          0.20550        4.08087        1.95695
H          0.18618        3.25294        4.51414
H          0.37895        1.98794        6.32813
H         -0.79057        1.85987        9.14184
H          0.17813        3.17310        8.47240
H          1.16251        0.44318        8.52842
H          1.23775        1.36607        9.86809
H         -0.94924        0.01459        5.71296
H         -1.52828       -0.15501        7.37165
H          1.23127       -0.44169        6.42321
H          0.24095       -1.62605        6.95458
H         -2.95140        1.23732        8.81491
H         -4.89773        2.50265        9.78957
H         -6.64741        3.65014        8.33909
H         -5.67385        4.76298        6.41261
H         -4.30776        5.57832        4.49258
H         -2.59007        6.10073        2.82237
H         -5.20512        0.00186        8.84570
H         -7.72423        1.67322        8.30645
H         -8.29130       -7.04713        8.19937
H        -10.78786       -6.09687        7.86877
H         -9.81917        1.34246        7.48565
H        -11.94194       -0.40112        8.85868
H        -13.03436        1.60518        8.90028
H        -13.17954        5.18740        5.43429
H        -14.07502        3.65600        8.87286
H        -13.02322        6.26579        7.64977
H        -13.98379        6.02577        9.21069
