112

C          1.26386       -4.69724        2.81080
C          0.10002       -4.55475        3.53519
C         -0.98682       -5.52737        3.80588
F         -0.73459       -6.73704        3.24545
F         -1.16368       -5.73695        5.13524
F         -2.17858       -5.10572        3.30857
S         -0.01292       -3.01318        4.22075
C          1.40730       -2.44185        3.43240
O          1.80981       -1.16483        3.55987
C          0.78267       -0.16738        3.62847
C          2.04063       -3.49097        2.76455
C          3.31015       -3.37651        2.08745
C          3.67042       -4.06927        0.98864
C          4.99214       -3.82940        0.35991
N          6.06836       -3.43851        1.00300
C          7.00589       -3.35630        0.02726
C          6.44827       -3.72885       -1.24304
C          7.48980       -3.63287       -2.29554
O          7.41396       -3.88488       -3.47910
C          8.64565       -3.14126       -1.52435
C          8.28347       -3.00600       -0.13669
N          9.33567       -2.54932        0.57871
C         10.26621       -2.41156       -0.33367
C          9.91269       -2.77965       -1.71858
C          5.16471       -4.03752       -1.11768
C          4.22485       -4.41597       -2.12030
C          3.89072       -3.62470       -3.15718
C          2.89647       -3.95057       -4.18345
C          2.63772       -3.02957       -5.15355
C          1.57499       -3.26123       -6.12186
C          1.11688       -2.49819       -7.15246
C          1.69431       -1.17196       -7.62461
C          2.17087       -1.25924       -9.09761
N          2.79000       -0.02907       -9.59907
C          0.76385        0.03459       -7.31989
N          1.38023        1.34219       -7.60751
C         -0.02171       -3.26042       -7.70930
C         -0.89817       -3.01874       -8.70352
C         -2.03992       -3.99061       -9.06284
C         -2.01997       -5.28121       -8.25288
C         -1.14470       -5.52294       -7.26500
C         -0.16251       -4.51643       -6.96432
C          0.79003       -4.50585       -6.02467
C          1.13013       -5.49132       -5.03318
C          2.12821       -5.21911       -4.17844
C         -3.39072       -3.31618       -8.90535
C         -4.48773       -3.57837       -9.64367
C         -5.76422       -2.84897       -9.39388
N         -5.91350       -1.88245       -8.51568
C         -7.21710       -1.52480       -8.64487
C         -7.85052       -2.31890       -9.66492
C         -9.27021       -1.89919       -9.78948
O        -10.13321       -2.31337      -10.53065
C         -9.37789       -0.84299       -8.76238
C         -8.10068       -0.67813       -8.11732
N         -8.19116        0.28907       -7.16815
C         -9.43916        0.66572       -7.25188
C        -10.28130       -0.01412       -8.25768
C         -7.00469       -3.20612      -10.17820
C         -7.20164       -4.21708      -11.17749
C         -8.34722       -4.91069      -11.31366
C         -8.51846       -6.02637      -12.19604
C         -8.27256       -7.32283      -11.77228
C         -7.85313       -7.86599      -10.44639
F         -7.70538       -6.91385       -9.48824
F         -8.75919       -8.75567       -9.95930
F         -6.66345       -8.51939      -10.51975
S         -8.50572       -8.43328      -13.04689
C         -9.11367       -7.23886      -14.12095
O         -9.52428       -7.53324      -15.36941
C        -10.04981       -8.83701      -15.59510
C         -9.04508       -5.97809      -13.54063
C         -9.45315       -4.75776      -14.19925
C        -10.41078       -4.61725      -15.12390
H          1.54514       -5.63357        2.34338
H          0.56520        0.19225        2.61893
H          1.14036        0.66616        4.23918
H         -0.15806       -0.49160        4.08496
H          4.01915       -2.66067        2.50684
H          3.01183       -4.78349        0.51027
H         11.27922       -2.04019       -0.12761
H         10.50553       -2.73980       -2.60619
H          3.80688       -5.40871       -1.99989
H          4.34972       -2.63903       -3.23886
H          3.17050       -2.08633       -5.19918
H          2.60569       -0.98772       -7.03754
H          1.33705       -1.51509       -9.75568
H          2.91722       -2.05709       -9.18734
H          2.17909        0.75590       -9.32411
H          2.79277       -0.03389      -10.61660
H          0.49307        0.02499       -6.25762
H         -0.16013       -0.03409       -7.90131
H          2.32655        1.36549       -7.21832
H          0.86027        2.08619       -7.14404
H         -0.83515       -2.11379       -9.29709
H         -1.89765       -4.27257      -10.11540
H         -2.75772       -6.04087       -8.50068
H         -1.16380       -6.45247       -6.70625
H          0.59424       -6.43143       -4.98458
H          2.38620       -5.97146       -3.44370
H         -3.45773       -2.58490       -8.10023
H         -4.47051       -4.33416      -10.41838
H         -9.89034        1.44962       -6.62505
H        -11.31692        0.13598       -8.48898
H         -6.35684       -4.45147      -11.81974
H         -9.20206       -4.68980      -10.67385
H         -9.26110       -9.59675      -15.56022
H        -10.48325       -8.85667      -16.59857
H        -10.84745       -9.07200      -14.88038
H         -8.94218       -3.84681      -13.88692
H        -11.00786       -5.44964      -15.48419
H        -10.63198       -3.64032      -15.54240
