97

C         15.90196      -10.70116       -1.65491
C         15.98165       -9.37879       -1.85676
C         15.19752       -8.42157       -1.13835
S         13.56829       -8.77193       -0.66270
C         13.31229       -7.23802        0.07863
C         12.04692       -6.98868        0.68495
C         11.41232       -5.81753        0.52584
C         10.21190       -5.45433        1.25476
C          9.11679       -4.92270        0.67384
C          8.91232       -4.64004       -0.70348
S          8.13847       -5.79661       -1.69935
C          8.04619       -4.73532       -3.05248
C          7.42932       -5.23722       -4.23448
C          6.68835       -4.47410       -5.04923
C          6.05586       -4.98655       -6.24513
C          6.29807       -4.49364       -7.48000
C          7.12314       -3.39014       -7.91538
C          8.44131       -3.24317       -7.68652
C          9.22557       -2.13481       -8.17269
S          8.50274       -0.84541       -9.10557
C          9.96615        0.00735       -9.29825
C         10.99828       -0.64562       -8.68434
C         12.29831       -0.14284       -8.70642
C         13.21272       -0.97157       -8.01190
C         14.66528       -0.54916       -7.98183
C         12.81907       -2.19927       -7.35869
O         13.84831       -2.84323       -6.69955
C         13.73465       -4.25700       -6.59325
C         11.48721       -2.69179       -7.33809
C         10.58677       -1.86737       -8.03530
S          5.26762       -5.31920       -8.72144
O          6.39363       -6.42410       -9.04607
C          4.53139       -6.35154       -7.45545
C          5.03931       -6.03502       -6.25806
O          4.65415       -6.57477       -5.06017
C          8.63378       -3.51534       -2.76119
C          9.23014       -3.50619       -1.43627
C         10.01798       -2.33164       -0.91913
C         10.33286       -1.31682       -2.03435
C         10.89202       -0.09925       -1.42429
N         11.34829        0.84646       -0.93299
C          9.04714       -1.06344       -2.85703
C          9.18170        0.19171       -3.70372
N          9.29332        1.23296       -4.40612
C          8.72457       -2.30681       -3.67130
S          7.85976       -4.45284        1.88555
O          7.08662       -5.86105        1.79062
C          8.90238       -5.06077        3.21133
C         10.05698       -5.51919        2.71339
O         11.09111       -6.03168        3.45423
C         14.46272       -6.47806       -0.01158
C         14.59347       -5.20642        0.56405
C         15.85198       -4.60054        0.32563
C         16.07040       -3.21038        0.87922
C         16.89708       -5.24074       -0.43351
O         18.03433       -4.47117       -0.57312
C         19.12051       -5.03124       -1.29781
C         16.77362       -6.54231       -0.97968
C         15.52012       -7.13311       -0.74193
H         16.53759      -11.37985       -2.21444
H         15.22905      -11.15075       -0.93108
H         16.70673       -9.00692       -2.57565
H         11.61108       -7.76869        1.30524
H         11.81489       -5.05156       -0.13179
H          7.54794       -6.29586       -4.45860
H          6.46845       -3.43496       -4.84796
H          6.56921       -2.66253       -8.50426
H          8.95715       -4.01394       -7.12024
H          9.98530        0.93851       -9.84852
H         12.59056        0.77712       -9.19632
H         14.82130        0.39244       -8.51957
H         15.28760       -1.30994       -8.46465
H         14.99950       -0.40119       -6.95028
H         13.52325       -4.71368       -7.56599
H         12.98065       -4.53647       -5.85153
H         14.69807       -4.64172       -6.24468
H         11.19930       -3.59596       -6.82566
H          7.02452       -6.08818       -9.72691
H          3.76603       -7.09371       -7.62639
H          3.94441       -7.21519       -5.23269
H         10.95791       -2.67940       -0.47173
H          9.44252       -1.84959       -0.11738
H         11.10069       -1.73973       -2.69925
H          8.21783       -0.85860       -2.16221
H          9.48235       -2.48839       -4.44318
H          7.77879       -2.11699       -4.17955
H          6.20547       -5.74835        1.35982
H          8.64216       -5.05223        4.26096
H         10.81444       -6.05122        4.38621
H         13.82861       -4.71746        1.15388
H         15.28560       -2.93772        1.59386
H         16.05693       -2.47829        0.06574
H         17.02353       -3.15098        1.41363
H         19.92302       -4.28788       -1.32374
H         18.83600       -5.24828       -2.33254
H         19.50896       -5.92314       -0.79585
H         17.56314       -7.04007       -1.52031
