92

C         -3.90152       -6.39292        2.73987
S         -4.32334       -5.21799        1.57552
C         -2.69185       -4.98807        1.12114
O         -2.41034       -4.08837        0.18291
C         -1.83411       -5.80437        1.83486
C         -2.54219       -6.60582        2.78702
C         -0.41563       -5.84741        1.68565
C          0.25717       -5.62108        0.53531
C          1.67226       -5.67696        0.41867
C          2.67363       -4.89807        1.19137
N          3.92739       -5.08555        0.88155
C          3.85682       -5.99604       -0.12226
C          2.48689       -6.35156       -0.40049
C          2.45292       -7.35959       -1.50718
S          1.14147       -8.13191       -2.16954
C          3.90791       -7.50170       -1.83024
C          4.66891       -6.64883       -0.94275
N          6.00058       -6.73924       -1.20157
C          6.03867       -7.58981       -2.18998
C          4.73754       -8.13420       -2.66113
C          4.57894       -9.08672       -3.72132
C          5.09886       -8.79949       -4.94449
C          4.94272       -9.71928       -6.06495
C          5.25935       -9.61993       -7.39337
C          5.80016       -8.40440       -8.18838
C          6.10819       -8.74564       -9.68012
N          6.60460       -7.67976      -10.55249
C          4.88538       -7.13391       -8.18066
N          4.63680       -6.50933       -6.88317
C          4.98330      -10.98525       -7.91772
C          5.20786      -11.59532       -9.09655
C          4.74402      -13.00427       -9.43498
C          4.20239      -13.75889       -8.23601
C          4.01485      -13.19042       -7.03293
C          4.39073      -11.81122       -6.86280
C          4.35722      -11.04548       -5.76679
C          3.86450      -11.34803       -4.44620
C          3.95280      -10.40256       -3.49248
C          3.74137      -12.88203      -10.56690
C          2.43763      -13.20000      -10.52914
C          1.52288      -12.89292      -11.57056
C          0.32679      -12.02425      -11.41473
N         -0.40746      -11.83179      -12.47496
C          0.24314      -12.56133      -13.41626
C          1.41339      -13.19451      -12.86738
C          2.10467      -13.97599      -13.93815
S          3.50618      -14.85565      -13.79275
C          1.21303      -13.72457      -15.12868
C          0.12696      -12.85816      -14.70105
N         -0.70664      -12.57104      -15.73590
C         -0.16132      -13.21356      -16.73265
C          1.07314      -13.97812      -16.42915
C          1.87671      -14.73152      -17.30890
S          1.99444      -14.30958      -18.97527
C          3.15072      -15.52048      -19.29813
O          3.65485      -15.63455      -20.52293
C          3.41946      -16.28258      -18.18362
C          2.65844      -15.84535      -17.06030
C          4.36136      -17.36090      -18.17881
C          4.32669      -18.41912      -17.35482
H         -4.66951       -6.87014        3.33337
H         -3.27725       -3.71676       -0.06760
H         -2.08305       -7.31824        3.46215
H          0.15961       -6.12910        2.56621
H         -0.28505       -5.39812       -0.37873
H          2.32873       -4.19954        1.96856
H          6.96817       -7.92807       -2.67308
H          5.64949       -7.87877       -5.10786
H          6.75982       -8.12925       -7.72975
H          5.19962       -9.12956      -10.16047
H          6.88782       -9.51416       -9.69575
H          5.86744       -6.99473      -10.71474
H          6.79495       -8.07874      -11.47380
H          3.91965       -7.36808       -8.64204
H          5.34657       -6.34633       -8.78725
H          4.16320       -7.19007       -6.29749
H          3.95157       -5.76217       -6.98906
H          5.71921      -11.13177       -9.92343
H          5.61587      -13.55941       -9.80648
H          3.95502      -14.80640       -8.38149
H          3.61988      -13.75565       -6.19786
H          3.43587      -12.31964       -4.23284
H          3.59828      -10.62248       -2.48885
H          4.13957      -12.41131      -11.46648
H          1.99350      -13.62220       -9.63114
H          0.11935      -11.56986      -10.43159
H         -0.57429      -13.21360      -17.74924
H          3.20497      -14.94672      -21.04411
H          2.71914      -16.32160      -16.09141
H          5.16537      -17.31321      -18.91172
H          3.54408      -18.55524      -16.61632
H          5.08485      -19.19159      -17.42060
