106

N         -7.35879        3.21320        0.08993
C         -6.41430        3.04303       -0.86250
C         -6.49214        3.67663       -2.08380
S         -5.18894        3.27133       -3.10963
C         -4.54459        2.22589       -1.92674
C         -5.25765        2.20585       -0.74554
N         -4.90972        1.47765        0.36539
C         -3.77986        0.69322        0.50512
C         -3.28411       -0.00042        1.53796
C         -2.00358       -0.77720        1.49008
N         -1.60222       -1.51351        2.50220
C         -0.41885       -2.04361        2.07881
C         -0.13981       -1.60977        0.74503
C          1.17523       -2.13256        0.29983
O          1.75235       -1.99150       -0.74958
C          1.60988       -2.88454        1.49683
C          0.59692       -2.78629        2.51740
N          1.00909       -3.45386        3.62486
C          2.18211       -3.90873        3.27197
C          2.65247       -3.58685        1.91080
C         -1.08212       -0.79204        0.29626
C         -1.03799       -0.03112       -0.90491
C         -0.95733       -0.58151       -2.12504
C         -0.76702        0.18897       -3.34689
C         -0.14893       -0.42462       -4.38905
C          0.13072        0.32374       -5.59886
C          0.83525       -0.01295       -6.71039
C          1.52427       -1.33552       -6.98375
C          0.97044       -2.04605       -8.23858
N         -0.44333       -2.40791       -8.09684
C          3.06755       -1.19166       -7.00039
N          3.80325       -2.45307       -7.15113
C          0.83913        1.20737       -7.53194
C          1.47391        1.54013       -8.67016
C          1.48549        2.98431       -9.20121
C          0.47966        3.89747       -8.51443
C         -0.19769        3.54682       -7.40803
C          0.04760        2.24056       -6.86428
C         -0.35204        1.71091       -5.70376
C         -1.07069        2.31143       -4.61696
C         -1.22302        1.58866       -3.49560
C          2.88265        3.55227       -9.04500
C          3.48053        4.44208       -9.85677
C          4.88565        4.84353       -9.57742
N          5.44486        4.82157       -8.38977
C          6.71170        5.24810       -8.62394
C          6.88959        5.53989      -10.02497
C          8.28476        6.01680      -10.23335
O          8.83627        6.37221      -11.25122
C          8.85405        5.94972       -8.86979
C          7.84145        5.48341       -7.95855
N          8.34957        5.42612       -6.69952
C          9.58117        5.82571       -6.86168
C          9.99609        6.18127       -8.23481
C          5.76976        5.30849      -10.70725
C          5.43931        5.49552      -12.09059
C          6.32041        5.48087      -13.10126
N          6.06661        5.72406      -14.44273
C          5.84292        4.73435      -15.36660
C          5.18278        3.55399      -15.09145
S          5.03032        2.54894      -16.46560
C          5.88866        3.66239      -17.43603
C          6.29773        4.77896      -16.73441
N          7.03591        5.79273      -17.27643
C          7.89275        5.71369      -18.35114
C          8.61074        6.70363      -18.88821
H         -8.23976        3.66262       -0.14875
H         -7.45693        2.54757        0.84648
H         -7.25023        4.35546       -2.44354
H         -3.65993        1.67197       -2.17420
H         -5.47301        1.56698        1.20685
H         -3.23993        0.66842       -0.42194
H         -3.80481       -0.04610        2.48768
H          2.83159       -4.50719        3.92687
H          3.57793       -3.83530        1.43004
H         -0.99837        1.04693       -0.76894
H         -0.96687       -1.66666       -2.23297
H          0.20006       -1.44930       -4.31795
H          1.30991       -2.00930       -6.14186
H          1.51871       -2.97756       -8.41428
H          1.10012       -1.42522       -9.13009
H         -0.99376       -1.56535       -7.92414
H         -0.78500       -2.79942       -8.97270
H          3.38965       -0.74566       -6.05135
H          3.39564       -0.51292       -7.79270
H          3.26077       -3.22842       -6.76919
H          3.95211       -2.66027       -8.13676
H          2.08071        0.82177       -9.20752
H          1.21180        2.94326      -10.26322
H          0.30938        4.88019       -8.94410
H         -0.90988        4.21113       -6.93382
H         -1.41691        3.33544       -4.67888
H         -1.68460        2.06964       -2.64430
H          3.43716        3.18456       -8.17945
H          2.97182        4.86919      -10.71025
H         10.31377        5.91261       -6.04559
H         10.94892        6.52592       -8.58329
H          4.39879        5.69443      -12.32956
H          7.38350        5.31337      -12.93581
H          6.69890        6.45289      -14.77050
H          4.76597        3.22829      -14.15027
H          6.04041        3.44287      -18.48300
H          7.05784        6.69725      -16.81659
H          7.99974        4.71368      -18.76863
H          8.56025        7.72178      -18.52181
H          9.27414        6.50402      -19.72516
