134

C        -10.64039       -6.87445        1.26621
C         -9.99153       -6.78104        2.58238
O         -9.53648       -5.79379        3.11947
C         -9.98418       -8.15195        3.09775
C        -10.65324       -9.01155        2.21478
C        -11.11407       -8.27360        1.04831
O        -11.73457       -8.69970        0.09934
C        -10.76576      -10.35485        2.48761
C        -10.18772      -10.85786        3.65115
C         -9.49533       -9.99930        4.52390
C         -9.39564       -8.62968        4.23488
F         -8.71484       -7.83655        5.06231
F        -11.40352      -11.18913        1.64913
C        -10.72980       -5.97009        0.29589
C        -10.21227       -4.60249        0.26175
C        -10.82971       -3.41554        0.68271
C        -12.13284       -3.17949        1.38199
O        -12.11643       -2.20318        2.14534
C        -13.38719       -3.95062        1.32066
C        -14.47179       -3.42811        2.03259
S        -15.68100       -4.58181        2.32911
C        -14.79956       -5.72511        1.40431
C        -13.90426       -5.07702        0.56417
C        -13.52268       -5.47812       -0.79759
O        -12.71697       -4.78451       -1.41990
C        -14.12834       -6.63457       -1.55188
C        -13.50213       -7.01636       -2.75354
C        -14.02328       -8.04066       -3.55231
C        -15.16434       -8.72604       -3.15055
C        -15.80245       -8.36193       -1.97288
C        -15.30788       -7.30346       -1.20365
C        -10.11120       -2.21302        0.46753
C         -8.91558       -2.16155       -0.25464
C         -8.34385       -3.32446       -0.75934
C         -8.96738       -4.53237       -0.41249
C         -7.12745       -3.29661       -1.62768
C         -6.91531       -4.31969       -2.50385
C         -5.66967       -4.41898       -3.24716
C         -5.14937       -5.41267       -4.03089
C         -5.78044       -6.78106       -4.37319
C         -4.97453       -7.72341       -5.31683
N         -3.77116       -8.33471       -4.73968
C         -6.26896       -7.59183       -3.13068
N         -6.95694       -8.84810       -3.45829
C         -3.82490       -4.87399       -4.42376
C         -2.78991       -5.37921       -5.11118
C         -1.41626       -4.72379       -5.18001
C         -1.42598       -3.27296       -4.74387
C         -2.47290       -2.71870       -4.10950
C         -3.63415       -3.53649       -3.86843
C         -4.73152       -3.28113       -3.15215
C         -5.05089       -2.13319       -2.34829
C         -6.17052       -2.16661       -1.60537
C         -0.69592       -4.92488       -6.49691
C         -0.89282       -5.96235       -7.32628
C          0.03459       -6.33515       -8.38889
C         -0.02465       -5.93159       -9.72777
C         -0.99289       -4.98257      -10.34796
O         -0.54933       -4.29533      -11.27686
C         -2.37517       -4.76323       -9.90968
C         -2.87311       -3.46880      -10.02863
S         -4.46658       -3.28815       -9.48168
C         -4.54929       -4.94176       -9.09019
C         -3.43589       -5.67536       -9.48694
C         -3.40285       -7.15138       -9.42799
O         -2.35578       -7.78662       -9.35369
C         -4.67842       -7.93493       -9.42621
C         -4.76031       -9.10016       -8.64967
C         -5.96550       -9.80310       -8.55798
C         -7.09195       -9.34868       -9.24165
C         -7.00012       -8.22939      -10.06678
C         -5.78978       -7.54205      -10.18341
C          0.96776       -6.41462      -10.59884
C          1.95015       -7.31183      -10.17212
C          2.03139       -7.70727       -8.84154
C          1.04892       -7.23096       -7.96865
C          3.04156       -8.64438       -8.32668
C          4.31954       -8.79268       -8.70948
C          5.20320       -9.82212       -8.06667
O          4.91573      -10.57283       -7.17782
C          6.49137       -9.69549       -8.74985
C          6.43631       -8.69808       -9.71574
C          5.12384       -8.06916       -9.73451
O          4.81909       -7.13756      -10.44575
C          7.52652       -8.39646      -10.50613
C          8.70591       -9.11161      -10.31952
C          8.76981      -10.11909       -9.34116
C          7.65353      -10.41098       -8.55183
F          7.73512      -11.37200       -7.62554
F          7.47195       -7.44242      -11.44137
H        -10.25990      -11.92067        3.87312
H         -9.02493      -10.38419        5.41915
H        -11.06753       -6.31162       -0.68203
H        -14.54663       -2.44622        2.48587
H        -15.18028       -6.73239        1.39869
H        -12.60713       -6.49966       -3.09664
H        -13.53971       -8.29701       -4.49124
H        -15.56870       -9.52843       -3.76155
H        -16.70483       -8.88076       -1.65727
H        -15.92236       -7.01655       -0.36520
H        -10.50111       -1.26546        0.84402
H         -8.47470       -1.18312       -0.41980
H         -8.49168       -5.46881       -0.70151
H         -7.64871       -5.09783       -2.65609
H         -6.68467       -6.52812       -4.94962
H         -4.72906       -7.18229       -6.23733
H         -5.61320       -8.55257       -5.64191
H         -3.33212       -7.69467       -4.07862
H         -3.09278       -8.51903       -5.47716
H         -6.98392       -7.01363       -2.54674
H         -5.42558       -7.80911       -2.46673
H         -7.75331       -8.68089       -4.06851
H         -7.30989       -9.28530       -2.60949
H         -2.86108       -6.33739       -5.57735
H         -0.79319       -5.24975       -4.43891
H         -0.52566       -2.68570       -4.89746
H         -2.45324       -1.68685       -3.78192
H         -4.39006       -1.27572       -2.33287
H         -6.39819       -1.30505       -0.98786
H          0.14973       -4.26516       -6.68522
H         -1.63784       -6.72701       -7.13782
H         -2.34376       -2.60552      -10.41624
H         -5.46509       -5.29933       -8.64046
H         -3.89472       -9.45959       -8.09626
H         -6.02834      -10.69902       -7.94338
H         -8.03821       -9.87626       -9.14367
H         -7.87223       -7.89034      -10.62100
H         -5.73272       -6.69579      -10.86374
H          0.99044       -6.09309      -11.63983
H          2.64549       -7.67894      -10.91956
H          1.05647       -7.56360       -6.92954
H          2.68337       -9.27712       -7.51213
H          9.57063       -8.88000      -10.93608
H          9.69065      -10.67783       -9.19430
