134

C         -1.62553        1.07547      -10.02952
C         -0.44468        1.07049       -9.28314
C          0.78802        0.98784       -9.92462
C          0.80692        0.95277      -11.33136
C         -0.36716        0.94921      -12.12630
C         -1.60107        1.00983      -11.43356
C         -2.79914        1.00454      -12.14734
C         -2.80016        0.93767      -13.53948
C         -1.60558        0.88017      -14.25487
C         -0.36485        0.88516      -13.56607
C          0.80754        0.82522      -14.35874
C          0.75759        0.76003      -15.75779
C         -0.46461        0.75582      -16.40642
C         -1.63864        0.81609      -15.66204
C          2.02885        0.97561       -9.13089
C          3.15969        0.37234       -9.55010
C          4.39522        0.32867       -8.78510
C          4.66058       -0.70832       -7.89859
C          3.86371       -1.88185       -7.52940
O          2.74020       -2.08598       -7.95390
N          4.60626       -2.60551       -6.62172
C          5.79984       -1.99627       -6.34928
O          6.72611       -2.33863       -5.63422
C          5.85174       -0.79858       -7.18399
C          6.86516        0.12816       -7.31505
C          6.61413        1.17395       -8.19163
C          5.41254        1.28551       -8.91186
C          5.41447        2.47780       -9.77511
O          4.51463        2.80045      -10.52733
S          6.90197        3.39006       -9.61045
C          7.54917        2.25885       -8.45445
O          8.63962        2.34610       -7.92206
C          4.23467       -3.80449       -6.06038
C          3.35382       -4.64069       -6.62584
C          2.96779       -5.90531       -6.04843
C          1.64252       -6.12540       -5.85817
C          1.21400       -7.31936       -5.16303
C         -0.01719       -7.75344       -4.78176
C         -1.41813       -7.22305       -5.09088
C         -1.63333       -5.76313       -4.59404
N         -2.98176       -5.21671       -4.80794
C         -1.76255       -7.32551       -6.60601
N         -1.74847       -8.68179       -7.14327
C          0.26982       -8.91938       -3.93249
C         -0.51457       -9.68207       -3.16297
C          0.03796      -10.82515       -2.32509
C          1.54994      -11.02955       -2.43308
C          2.33053      -10.27050       -3.21121
C          1.70614       -9.20236       -3.93545
C          2.26086       -8.24888       -4.68480
C          3.64119       -8.05771       -5.04245
C          3.96549       -6.93241       -5.69681
C         -0.66791      -12.12379       -2.62730
C         -1.16309      -12.50592       -3.81794
C         -1.78984      -13.80664       -4.08523
C         -1.36414      -14.99321       -3.47656
C         -0.25684      -15.29192       -2.54540
O          0.69260      -14.55856       -2.33803
N         -0.45217      -16.57211       -2.08716
C         -1.38916      -17.21707       -2.84343
O         -1.71872      -18.39354       -2.85924
C         -2.01159      -16.20909       -3.69285
C         -3.08928      -16.34709       -4.54087
C         -3.49719      -15.18739       -5.18422
C         -2.86910      -13.94877       -4.98188
C         -3.50354      -12.90132       -5.80181
O         -3.13739      -11.74673       -5.87731
S         -4.87175      -13.51843       -6.71162
C         -4.63169      -15.12745       -6.10296
O         -5.31506      -16.09354       -6.39056
C          0.26748      -17.18418       -1.08741
C          0.96044      -16.55087       -0.12736
C          1.71023      -17.25529        0.93996
C          2.30671      -18.47847        0.59685
C          3.01321      -19.21542        1.53223
C          3.15094      -18.71437        2.82628
C          2.59332      -17.47614        3.23617
C          1.87012      -16.72662        2.26111
C          1.32735      -15.48651        2.66523
C          1.45750      -15.00124        3.96673
C          2.15161      -15.72723        4.92900
C          2.73824      -16.96901        4.58380
C          3.44222      -17.63431        5.62333
C          3.56119      -17.10387        6.91239
C          2.96937      -15.88930        7.21710
C          2.26441      -15.20759        6.23096
C          3.59158      -20.50164        1.14542
C          4.83229      -20.61126        0.65417
H         -2.57560        1.12444       -9.50138
H         -0.50888        1.11395       -8.19955
H          1.77258        0.92834      -11.82439
H         -3.75300        1.04918      -11.62807
H         -3.75541        0.93339      -14.05899
H          1.79041        0.82920      -13.90721
H          1.68172        0.71723      -16.33033
H         -0.51052        0.70684      -17.49106
H         -2.59165        0.81235      -16.18578
H          1.98484        1.47710       -8.16269
H          3.18697       -0.15571      -10.49805
H          7.79970        0.03448       -6.76942
H          4.73376       -4.05568       -5.12376
H          2.90144       -4.42521       -7.59153
H          0.91152       -5.37159       -6.12224
H         -2.15135       -7.84202       -4.55711
H         -0.93162       -5.08651       -5.08704
H         -1.42855       -5.70832       -3.51890
H         -3.35094       -5.47336       -5.72139
H         -2.93305       -4.19754       -4.82312
H         -1.08959       -6.69217       -7.19468
H         -2.77539       -6.95703       -6.79001
H         -0.83104       -9.09908       -7.02671
H         -1.94838       -8.65647       -8.14212
H         -1.58375       -9.50548       -3.10223
H         -0.16807      -10.57939       -1.27591
H          2.00514      -11.82247       -1.84118
H          3.40423      -10.42307       -3.26992
H          4.38174       -8.81181       -4.80549
H          4.99589       -6.76353       -5.99942
H         -0.69767      -12.78644       -1.76633
H         -1.10466      -11.81392       -4.65680
H         -3.58835      -17.30049       -4.68524
H          0.18610      -18.26924       -1.10098
H          0.96492      -15.46693       -0.07841
H          2.22554      -18.87592       -0.41149
H          3.71336      -19.32518        3.52717
H          0.78263      -14.85486        1.96746
H          1.00905      -14.04167        4.21482
H          3.92503      -18.59089        5.44744
H          4.11951      -17.64499        7.67151
H          3.05788      -15.47004        8.21548
H          1.80444      -14.25506        6.48621
H          2.94992      -21.37269        1.24305
H          5.48331      -19.75073        0.53201
H          5.22041      -21.57966        0.35384
