92

C          3.14090       -0.24480       -0.48209
C          4.09628        0.29307       -1.24839
C          5.23060        1.00810       -0.71700
C          5.13046        2.05232        0.12003
C          6.29197        2.73514        0.63841
C          6.23036        3.83365        1.40328
C          7.37497        4.53246        1.89985
C          7.45608        5.21121        3.22154
N          8.56859        5.83005        3.49965
C          9.30843        5.63265        2.37728
C          8.57076        4.85576        1.39875
C          9.41662        4.70789        0.16837
S          9.07719        3.95718       -1.27417
C         10.66273        5.43651        0.56380
C         10.50905        5.94978        1.90273
N         11.62593        6.61836        2.29210
C         12.40548        6.50524        1.25169
C         11.86146        5.76100        0.08966
C         12.51708        5.50176       -1.16054
C         13.67632        4.79542       -1.15533
C         14.28254        4.39779       -2.41220
C         15.36812        3.62148       -2.66245
C         16.34081        3.04902       -1.65239
C         15.98409        1.59573       -1.25608
N         14.68604        1.48576       -0.58505
C         17.83855        3.13114       -2.05504
N         18.30155        4.49625       -2.30664
C         15.38765        3.46863       -4.11842
C         16.12946        2.70074       -4.93173
C         15.97275        2.72882       -6.44499
C         14.86331        3.64633       -6.94153
C         14.08878        4.37959       -6.12399
C         14.32040        4.28006       -4.70842
C         13.64437        4.80646       -3.67833
C         12.46319        5.63007       -3.64837
C         11.93842        5.94772       -2.44915
C         17.30859        3.05788       -7.07677
C         17.76063        4.29092       -7.36481
C         19.02525        4.58030       -7.96720
C         20.08646        3.62275       -8.37861
N         21.16397        4.12372       -8.91426
C         20.90537        5.45792       -8.90374
C         19.60825        5.72667       -8.32323
C         19.37916        7.20768       -8.31863
S         18.07798        8.06338       -7.74254
C         20.64318        7.71230       -8.94659
C         21.49667        6.58793       -9.25801
N         22.66911        7.00701       -9.80069
C         22.53440        8.30360       -9.80798
C         21.25427        8.84353       -9.28391
C         20.91172       10.21956       -9.16495
C         19.82560       10.76628       -9.72930
C         19.46739       12.15642       -9.57843
C         19.22586       12.72227       -8.38635
C         18.83915       14.10390       -8.23551
C         18.58624       14.65943       -7.04507
H          2.31870       -0.79672       -0.92634
H          3.16258       -0.16379        0.59987
H          4.07044        0.15692       -2.32716
H          6.20273        0.66865       -1.07084
H          4.15035        2.41549        0.42099
H          7.25463        2.30428        0.37312
H          5.26275        4.23776        1.69534
H          6.59374        5.16463        3.90441
H         13.41840        6.93190        1.19295
H         14.12277        4.43183       -0.23729
H         16.26358        3.65371       -0.73665
H         16.74538        1.20789       -0.56913
H         15.98271        0.94677       -2.13852
H         14.67018        2.08102        0.24095
H         14.54400        0.53197       -0.25741
H         18.05649        2.51219       -2.92809
H         18.45034        2.72028       -1.24317
H         17.73953        4.91405       -3.05024
H         19.25889        4.47221       -2.65685
H         16.86249        2.00773       -4.54136
H         15.69824        1.71480       -6.76611
H         14.69859        3.69249       -8.01479
H         13.30666        5.02399       -6.50659
H         12.00310        5.95778       -4.57219
H         11.03360        6.54847       -2.40846
H         17.92459        2.18490       -7.27594
H         17.13429        5.14853       -7.12415
H         19.94116        2.54496       -8.22040
H         23.30127        8.99910      -10.18171
H         21.59869       10.83652       -8.58781
H         19.16099       10.17782      -10.35942
H         19.35051       12.72181      -10.50028
H         19.30059       12.12480       -7.47858
H         18.74952       14.71095       -9.13363
H         18.65601       14.09828       -6.11825
H         18.29576       15.70276       -6.97435
