82

C          4.26000       -1.37762        1.26993
C          4.14159       -0.08053        0.97089
C          4.90621        0.54804       -0.07577
C          5.23912        1.84500       -0.03032
C          6.02082        2.46418       -1.06858
C          6.77586        3.55447       -0.86872
C          7.57210        4.18681       -1.89237
C          7.62957        3.78938       -3.18502
C          8.52710        4.68041       -3.89821
C          9.00846        5.63045       -2.92063
C          8.44795        5.35088       -1.73928
F          9.86992        6.62642       -3.16160
C          8.81648        4.61084       -5.20151
C          9.70339        5.49963       -5.92916
C          9.73245        5.08784       -7.21370
C          8.83653        3.94294       -7.36070
C          8.31101        3.65822       -6.16893
F          7.44698        2.66582       -5.92144
C         10.48697        5.75645       -8.23299
C         10.95003        5.12407       -9.31887
C         11.69515        5.82265      -10.29038
N         12.13284        5.10159      -11.37716
C         12.80744        5.95595      -12.19729
C         13.50252        6.00498      -13.42319
C         13.90420        7.32441      -13.54445
N         13.47257        8.04494      -12.45642
C         12.80363        7.18747      -11.63551
C         12.11034        7.13936      -10.40999
C         14.62664        8.02784      -14.52516
C         15.51712        7.39179      -15.29807
C         16.27499        8.04970      -16.32573
C         15.82485        9.10132      -17.04833
C         16.85420        9.45805      -18.00707
C         17.92514        8.50115      -17.82319
C         17.58560        7.66138      -16.84042
F         19.06739        8.46166      -18.51932
C         16.79539       10.47605      -18.87235
C         17.82504       10.83178      -19.82608
C         17.39476       11.89970      -20.53682
C         16.08631       12.29182      -20.01486
C         15.73406       11.44257      -19.04958
F         14.59242       11.48770      -18.34812
C         18.16904       12.56394      -21.55023
C         19.06396       11.92969      -22.32507
C         19.85487       12.59023      -23.32878
C         20.73221       11.92167      -24.08744
C         21.53056       12.56342      -25.10324
C         22.38384       11.87957      -25.87599
C         23.16226       12.50526      -26.91380
C         23.72427       11.80548      -27.90610
H          3.67526       -1.81011        2.07503
H          4.96387       -2.02607        0.75720
H          3.45368        0.54404        1.53566
H          5.24542       -0.08249       -0.89626
H          4.95570        2.46352        0.81645
H          5.97194        1.98704       -2.04430
H          6.84044        3.99723        0.12314
H          7.10841        2.96114       -3.63568
H          8.61115        5.88745       -0.81953
H         10.25023        6.32720       -5.50518
H          8.63730        3.42695       -8.28452
H         10.67977        6.81401       -8.07065
H         10.76559        4.06158       -9.45521
H         12.00065        4.11885      -11.57966
H         13.67854        5.20149      -14.12454
H         13.61426        9.02527      -12.25041
H         11.93295        7.95066       -9.71855
H         14.45652        9.09671      -14.63248
H         15.72648        6.33419      -15.15603
H         14.86880        9.59164      -16.94991
H         18.17704        6.84020      -16.47046
H         18.77376       10.33083      -19.92970
H         15.50451       13.13255      -20.37120
H         17.98785       13.62820      -21.67362
H         19.21711       10.85702      -22.21446
H         19.71974       13.66246      -23.45339
H         20.86181       10.84785      -23.95872
H         21.38754       13.63152      -25.25100
H         22.50320       10.80600      -25.74250
H         23.28168       13.58580      -26.88438
H         23.60038       10.72957      -27.99001
H         24.29281       12.30626      -28.68115
