110

C         -6.17565        2.85530       -2.29223
C         -5.51133        2.61876       -1.10933
C         -4.44035        3.45684       -0.72738
N         -3.83511        3.21076        0.46208
C         -4.26931        2.19185        1.22648
C         -5.30143        1.38801        0.82205
N         -5.93445        1.58717       -0.35041
C         -4.05467        4.51746       -1.58649
C         -4.77413        4.76188       -2.78409
C         -5.84898        3.90551       -3.12130
N         -6.59457        4.07539       -4.23006
C         -6.28223        5.11900       -5.02122
C         -5.24257        5.96512       -4.72076
N         -4.47993        5.79805       -3.61709
C         -2.90908        5.44383       -1.27119
C         -2.04620        5.35943       -0.24195
C         -0.94963        6.29831        0.06437
C         -0.22350        6.89728       -0.97807
C          0.81580        7.73760       -0.63335
C          1.14884        7.99237        0.68010
C          2.28136        8.90539        0.69157
O          2.78943        9.30119        1.72266
N          2.58645        9.16329       -0.61603
C          1.75131        8.48396       -1.46794
O          1.74568        8.46146       -2.68393
C          3.65393       10.01020       -1.11576
C          4.48602       10.72269       -0.06560
C          0.48422        7.41289        1.73421
C         -0.56547        6.53971        1.42361
C         -1.21873        5.89184        2.56406
C         -2.25024        6.46204        3.19909
C         -2.86609        5.79751        4.28377
N         -4.19951        6.06183        4.49050
C         -4.61351        5.31461        5.55403
C         -5.75179        5.04080        6.34049
C         -5.30504        4.18561        7.33816
N         -3.98115        3.87597        7.10449
C         -3.56226        4.60428        6.02496
C         -2.42423        4.88753        5.23388
C         -5.91022        3.64494        8.50264
C         -7.15046        4.02432        8.84823
C         -7.88147        3.66509       10.07935
C         -8.57674        4.75970       10.66200
C         -9.32252        4.53977       11.79920
C         -9.39834        3.29204       12.35355
C        -10.19032        3.36704       13.56708
O        -10.32671        2.42943       14.32085
N        -10.64360        4.65264       13.64729
C        -10.10524        5.43347       12.65493
O        -10.18549        6.63418       12.48815
C        -11.34574        5.19626       14.79710
C        -12.39646        4.26635       15.38600
C         -8.76447        2.19827       11.81530
C         -7.97365        2.35896       10.66098
C         -7.29919        1.15589       10.10115
C         -7.22382       -0.03209       10.73049
C         -6.58822       -1.33121       10.33992
C         -6.11456       -1.59958        9.04584
C         -5.61955       -2.88868        8.74755
N         -5.16407       -3.17742        7.49861
C         -5.18682       -2.20230        6.56877
C         -5.66466       -0.94985        6.85414
N         -6.12648       -0.64441        8.07847
C         -5.62270       -3.86751        9.75155
C         -6.06692       -3.60478       11.05439
C         -6.54449       -2.31764       11.35684
N         -6.96550       -2.03841       12.62360
C         -6.92545       -3.01075       13.55415
C         -6.47831       -4.26699       13.24637
N         -6.04948       -4.57796       12.00847
C         -5.16180       -5.23682        9.43195
C         -3.89138       -5.62635        9.57984
H         -7.00106        2.20329       -2.56990
H         -3.75569        2.05332        2.17026
H         -5.65411        0.56318        1.42817
H         -6.89836        5.25404       -5.90267
H         -4.99187        6.80727       -5.35547
H         -2.79723        6.26934       -1.97284
H         -2.12051        4.56091        0.48490
H         -0.44241        6.70193       -2.02325
H          3.19431       10.74621       -1.78594
H          4.30070        9.38240       -1.73997
H          3.86266       11.37275        0.55725
H          5.24888       11.34429       -0.54255
H          4.99703       10.00558        0.58538
H          0.78100        7.61935        2.75863
H         -0.82337        4.92136        2.84909
H         -2.64058        7.42203        2.86727
H         -4.80519        6.68216        3.96847
H         -6.74282        5.45511        6.22301
H         -3.37541        3.26654        7.63933
H         -1.42182        4.49812        5.34467
H         -5.33676        2.96989        9.13247
H         -7.68279        4.73872        8.22280
H         -8.51966        5.76172       10.24353
H        -11.81417        6.14188       14.50253
H        -10.58969        5.42602       15.55697
H        -13.10060        3.92949       14.61848
H        -12.95536        4.77590       16.17574
H        -11.94220        3.37974       15.83898
H         -8.91341        1.25375       12.32356
H         -6.84862        1.27945        9.12639
H         -7.70130       -0.12131       11.69914
H         -4.81029       -2.46172        5.58923
H         -5.69229       -0.15900        6.11782
H         -7.26715       -2.74263       14.54613
H         -6.44976       -5.06219       13.98236
H         -5.92865       -5.92791        9.09258
H         -3.11708       -4.95045        9.93195
H         -3.60381       -6.64913        9.35717
