104

C          1.51781       -0.57163        4.50281
C          0.23029       -0.27427        4.10241
C         -0.06882        1.01604        3.60925
N         -1.33346        1.30201        3.20406
C         -2.25734        0.32209        3.29857
C         -1.94780       -0.92576        3.78743
N         -0.70292       -1.24101        4.19525
C          0.96863        1.96480        3.55071
C          2.28283        1.64996        3.94534
C          2.54367        0.34948        4.43216
N          3.77063       -0.03508        4.83388
C          4.75432        0.88256        4.74557
C          4.52202        2.15144        4.26982
N          3.29657        2.55100        3.86824
C          0.67113        3.33267        3.06550
C          0.28632        4.31006        3.90066
C          0.01620        5.66981        3.49716
C          0.10468        6.71955        4.34942
C         -0.26616        7.93381        3.62421
C         -0.62607        7.49952        2.29082
C         -0.47007        6.17401        2.21060
F         -1.07557        8.29298        1.30998
C         -0.25792        9.18462        4.10567
C         -0.59812       10.40546        3.38046
C         -0.42907       11.45022        4.22020
C         -0.00066       10.93467        5.51938
C          0.10652        9.60598        5.44286
F          0.49853        8.80011        6.43755
C         -0.64404       12.83623        3.89431
C          0.00889       13.48439        2.91532
C         -0.13171       14.89156        2.68228
S         -0.45909       15.98675        3.97922
C         -0.40228       17.34706        2.96410
C         -0.12916       17.02767        1.65093
C         -0.01209       18.03805        0.55732
C          0.02832       15.60536        1.49700
C          0.34659       14.97410        0.24961
C         -0.57137       14.58629       -0.64990
C         -0.21630       13.90492       -1.87424
C         -1.11786       13.49488       -2.78019
C         -0.79398       12.73296       -3.96500
C          0.21504       11.83199       -4.05553
C          0.13572       11.18174       -5.36004
C         -1.00789       11.77035       -6.02427
C         -1.56631       12.66946       -5.20708
F         -1.44803       11.45088       -7.24763
C          0.94117       10.21237       -5.81480
C          0.83753        9.52957       -7.09747
C          1.79144        8.57332       -7.14570
C          2.58168        8.65469       -5.91635
C          2.06974        9.61089       -5.13589
F          2.53500        9.96401       -3.93089
C          1.97389        7.70474       -8.28143
C          2.51315        6.47772       -8.20122
C          2.65189        5.60922       -9.38963
C          3.83615        5.67144      -10.13402
C          3.96921        4.86731      -11.28653
N          5.10627        4.94971      -12.02706
C          6.08466        5.78265      -11.62148
C          5.95356        6.54708      -10.49447
N          4.83755        6.50299       -9.74379
C          2.91087        3.99955      -11.64215
C          1.72003        3.94876      -10.88619
C          1.59334        4.76257       -9.74065
N          0.46190        4.72760       -8.98738
C         -0.52873        3.90139       -9.36899
C         -0.41328        3.11149      -10.48272
N          0.69815        3.12490      -11.24593
C          2.97295        3.13936      -12.86173
C          4.05903        2.54725      -13.37701
H          1.73305       -1.56882        4.88093
H         -3.25782        0.57364        2.96634
H         -2.69045       -1.71128        3.86471
H          5.73782        0.56215        5.06882
H          5.31399        2.88775        4.19468
H          0.81473        3.49669        2.00236
H          0.18622        4.10051        4.96404
H          0.41391        6.67827        5.38189
H         -0.68546        5.56369        1.34970
H         -0.92324       10.45558        2.35289
H          0.21305       11.54291        6.38337
H         -1.34011       13.35214        4.55122
H          0.69767       12.93876        2.27418
H         -0.56448       18.32994        3.38464
H         -0.02638       19.05736        0.95770
H         -0.84718       17.93754       -0.14302
H          0.92639       17.90856        0.00909
H          1.40359       14.80683        0.05526
H         -1.62803       14.75283       -0.44956
H          0.84183       13.70549       -2.03412
H         -2.17431       13.71338       -2.63908
H          0.92889       11.58587       -3.28525
H         -2.44336       13.25795       -5.41971
H          0.09999        9.73414       -7.85757
H          3.43956        8.04352       -5.69042
H          1.61831        8.07951       -9.23913
H          2.85843        6.05292       -7.26361
H          6.97688        5.80831      -12.23580
H          6.73383        7.21829      -10.15877
H         -1.41775        3.89644       -8.74935
H         -1.20562        2.44332      -10.79884
H          2.01607        2.96036      -13.35096
H          5.04773        2.65349      -12.94381
H          3.97837        1.93479      -14.26909
