110

N          5.54610        0.27162       -0.04127
C          5.61316       -0.87827        0.86828
C          7.06023       -1.27960        1.17063
C          7.10160       -2.75597        1.56146
N          8.47387       -3.17246        1.88760
S          9.16881       -4.08112        0.68515
N          7.82661       -4.15773       -0.28416
C          6.61552       -3.66591        0.38659
C          5.66582       -2.94698       -0.59419
C          4.75985       -2.01868        0.22595
N          3.68276       -1.38020       -0.59477
S          4.15707        0.22951       -0.93883
C          2.35159       -1.46892       -0.06713
C          2.13726       -1.49830        1.33583
C          0.85030       -1.59848        1.82800
C         -0.24414       -1.61677        1.00155
C         -1.43734       -1.71030        1.83766
O         -2.57262       -1.75539        1.40582
N         -0.99769       -1.74129        3.13267
C          0.36797       -1.70932        3.20299
O          1.09883       -1.78184        4.17204
C         -1.87690       -1.83815        4.28002
C         -2.20718       -3.27959        4.63205
C         -0.10952       -1.57035       -0.36560
C          1.19291       -1.51638       -0.92392
C          1.16970       -1.64341       -2.39385
C          1.93276       -1.02456       -3.30210
C          1.64829       -1.23405       -4.66509
N          2.20810       -2.33591       -5.26966
C          1.71470       -2.39402       -6.54375
C          1.72947       -3.18691       -7.71430
C          0.85267       -2.55172       -8.58158
N          0.38715       -1.39739       -7.99435
C          0.90021       -1.32468       -6.73473
C          0.85905       -0.54534       -5.56555
C          0.32173       -2.85975       -9.84924
C          0.95161       -3.67345      -10.71170
C          0.33932       -4.08283      -11.99512
C         -1.06561       -4.28389      -12.00048
C         -1.67099       -4.67892      -13.16749
C         -0.93461       -4.90638      -14.30106
C         -1.83453       -5.37803      -15.33493
O         -1.43754       -5.76309      -16.41672
N         -3.09488       -5.33049      -14.80897
C         -3.05998       -4.97704      -13.48196
O         -3.96871       -4.93322      -12.66785
C         -4.28295       -5.85135      -15.45518
C         -4.30498       -5.66698      -16.96345
C          0.43052       -4.74329      -14.34847
C          1.10487       -4.33846      -13.18316
C          2.57661       -4.17446      -13.24535
C          3.36338       -4.54749      -14.27053
N          4.73184       -4.42753      -14.41326
C          5.52760       -3.33999      -13.81754
C          5.38605       -2.06895      -14.67380
C          6.58300       -1.14732      -14.44736
N          6.46605        0.09142      -15.24175
S          7.46109        0.09069      -16.57430
N          8.22566       -1.32868      -16.21883
C          7.91922       -1.82230      -14.87060
C          7.86369       -3.35126      -14.86318
C          6.99788       -3.84311      -13.70159
N          6.95445       -5.31433      -13.67438
S          5.56804       -5.88666      -14.39144
H          6.34370        0.26641       -0.67886
H          5.12919       -0.57996        1.80689
H          7.45195       -0.64600        1.97639
H          7.70977       -1.10589        0.30158
H          6.46170       -2.91402        2.43962
H          8.47853       -3.69516        2.76317
H          7.68362       -5.10190       -0.64075
H          6.09579       -4.52711        0.82969
H          5.07953       -3.68443       -1.15544
H          6.23137       -2.37223       -1.34029
H          4.33404       -2.65213        1.01343
H          2.94652       -1.43403        2.05353
H         -2.80306       -1.29923        4.05286
H         -1.39303       -1.35340        5.13432
H         -2.69976       -3.78870        3.79711
H         -2.87960       -3.31180        5.49534
H         -1.30229       -3.84296        4.88155
H         -1.00188       -1.59309       -0.98796
H          0.36634       -2.28430       -2.76541
H          2.70932       -0.32079       -3.06184
H          2.82267       -3.02462       -4.86342
H          2.24978       -4.12012       -7.87721
H         -0.25736       -0.71161       -8.37412
H          0.29559        0.36181       -5.37554
H         -0.65245       -2.43912      -10.09249
H          1.93202       -4.07518      -10.47766
H         -1.67794       -4.15197      -11.11196
H         -5.15650       -5.36185      -15.00978
H         -4.34367       -6.91650      -15.20729
H         -4.14049       -4.61803      -17.23462
H         -5.26568       -5.98911      -17.37302
H         -3.53267       -6.26772      -17.45153
H          0.92649       -4.94489      -15.29087
H          3.05199       -3.75391      -12.36697
H          2.96618       -5.02562      -15.16203
H          5.17270       -3.13582      -12.79916
H          4.44948       -1.55707      -14.41735
H          5.30312       -2.32965      -15.73876
H          6.62647       -0.88000      -13.38368
H          6.70083        0.89331      -14.65836
H          9.22970       -1.29154      -16.38420
H          8.70412       -1.47536      -14.18485
H          8.88090       -3.75554      -14.78569
H          7.45797       -3.72538      -15.81397
H          7.43372       -3.47700      -12.76328
H          6.94319       -5.62497      -12.70324
