108

C          8.32958       -2.76198       -4.00707
C          7.14159       -3.34568       -4.20432
C          6.11965       -3.30410       -3.18695
C          6.16006       -2.43385       -2.16149
C          7.33900       -1.48370       -1.98978
C          8.62418       -2.00239       -2.74136
N          9.62901       -0.97338       -3.05739
C          9.17983        0.22620       -3.17633
C          7.75054        0.61000       -2.96982
N          6.86387       -0.15704       -2.44205
F          7.37128        1.83615       -3.35197
F         10.04784        1.18847       -3.51517
C          5.07404       -2.37798       -1.13534
N          5.29195       -2.07913        0.13104
C          4.05108       -2.08442        0.69091
C          3.06566       -2.39601       -0.30631
C          1.71576       -2.40090        0.30862
O          0.63697       -2.61100       -0.19058
C          2.02472       -2.07823        1.71739
C          3.44996       -1.90409        1.86485
N          3.73813       -1.61573        3.16363
C          2.56140       -1.62012        3.73134
C          1.39532       -1.90611        2.87305
C          3.62667       -2.60971       -1.48796
C          2.97160       -2.96387       -2.70790
C          1.98964       -2.22003       -3.23355
C          1.20047       -2.56321       -4.40779
C          0.72859       -1.52675       -5.14137
C         -0.13793       -1.77150       -6.27374
C         -0.70006       -0.89411       -7.14424
C         -0.51903        0.60994       -7.09185
C          0.72999        1.01928       -7.91166
N          1.22142        2.35300       -7.54595
C         -1.78193        1.43451       -7.43791
N         -1.62107        2.88388       -7.24147
C         -1.46218       -1.73313       -8.07719
C         -2.21098       -1.45321       -9.15922
C         -2.94743       -2.53093       -9.95887
C         -2.69209       -3.94577       -9.45832
C         -1.92814       -4.23285       -8.39118
C         -1.31308       -3.14256       -7.68430
C         -0.51013       -3.15425       -6.61068
C         -0.00296       -4.24014       -5.80606
C          0.80208       -3.94531       -4.76358
C         -4.43747       -2.26204       -9.98460
C         -5.25184       -2.62342      -10.99316
C         -6.70526       -2.34280      -10.91981
N         -7.24424       -1.34919      -10.25050
C         -8.56975       -1.45952      -10.53104
C         -8.79704       -2.57088      -11.41426
C        -10.24567       -2.67568      -11.71130
O        -10.82584       -3.47262      -12.41439
C        -10.80332       -1.54395      -10.93334
C         -9.72634       -0.86197      -10.25662
N        -10.22008        0.18489       -9.54493
C        -11.50195        0.11821       -9.78024
C        -11.96867       -0.96949      -10.66641
C         -7.66070       -3.19036      -11.70718
C         -7.46982       -4.32400      -12.55402
C         -7.00827       -5.51888      -12.15384
C         -6.98160       -6.68536      -13.02656
C         -6.30874       -6.67608      -14.19314
C         -6.19799       -7.85627      -15.01831
C         -6.97109       -8.93137      -14.81037
C         -8.01589       -8.96556      -13.72635
C         -7.69236       -7.95763      -12.56206
N         -8.86861       -7.62203      -11.72946
C        -10.00202       -7.64706      -12.34155
C        -10.17909       -8.08104      -13.76154
N         -9.28454       -8.71524      -14.43382
F        -11.35142       -7.83329      -14.35937
F        -11.09530       -7.29825      -11.65209
H          9.11303       -2.85890       -4.75341
H          6.93625       -3.90713       -5.11178
H          5.32999       -4.03104       -3.31140
H          7.60429       -1.40007       -0.92766
H          9.12336       -2.71472       -2.06985
H          2.39420       -1.42849        4.80213
H          0.35673       -1.95941        3.13008
H          3.24867       -3.90290       -3.17221
H          1.71733       -1.27873       -2.75302
H          0.98575       -0.50077       -4.89862
H         -0.30301        0.86140       -6.04303
H          0.49583        1.00002       -8.98160
H          1.55340        0.31501       -7.74361
H          0.40089        2.97455       -7.51349
H          1.80928        2.71425       -8.29408
H         -2.62397        1.09516       -6.82329
H         -2.05469        1.29675       -8.48406
H         -1.50496        3.07269       -6.24443
H         -2.48530        3.35111       -7.51737
H         -2.32220       -0.44262       -9.52774
H         -2.55879       -2.47626      -10.98503
H         -3.15443       -4.75995      -10.01014
H         -1.76889       -5.25358       -8.06481
H         -0.28419       -5.26149       -6.03155
H          1.16465       -4.75023       -4.13032
H         -4.86125       -1.77585       -9.10540
H         -4.87946       -3.13879      -11.87019
H        -12.24148        0.81907       -9.36404
H        -12.96666       -1.19904      -10.98175
H         -7.86210       -4.21625      -13.56531
H         -6.71920       -5.69291      -11.11782
H         -5.78182       -5.79096      -14.53832
H         -5.48694       -7.83593      -15.83949
H         -6.89592       -9.79338      -15.46670
H         -8.05423       -9.97858      -13.30470
H         -6.98606       -8.47246      -11.89408
