92

C         -0.55952        5.39558       -2.40308
C          0.36727        5.18708       -3.34914
C          1.38413        4.17326       -3.18319
C          1.26398        3.20877       -2.25041
C          0.05403        3.13910       -1.32603
C         -0.60978        4.55237       -1.15526
N         -2.00372        4.51862       -0.67834
C         -2.67447        3.48025       -1.03820
C         -2.09514        2.33701       -1.80773
N         -0.83283        2.11401       -1.91115
F         -2.94048        1.47011       -2.37963
F         -3.95988        3.40375       -0.67079
C          2.31777        2.19940       -2.09285
C          2.31561        1.00843       -2.81876
C          1.39419        0.45031       -3.82899
O          0.45893        1.04610       -4.32873
N          1.85117       -0.81891       -4.13198
C          3.03676       -1.08037       -3.49362
O          3.79817       -2.03003       -3.53346
C          3.32661        0.06633       -2.65589
C          4.41027        0.23642       -1.81669
C          4.42574        1.41883       -1.09937
C          3.40661        2.37371       -1.21238
C          3.64023        3.49689       -0.29675
O          2.85736        4.40657       -0.10289
S          5.16646        3.34562        0.55180
C          5.48023        1.78740       -0.16145
O          6.44933        1.09206        0.07874
C          1.19066       -1.66116       -5.00262
C          1.61450       -2.88416       -5.34960
C          0.87746       -3.70426       -6.23050
N          1.60553       -4.61768       -6.95964
C          0.72934       -5.36114       -7.69365
C          0.67569       -6.43242       -8.61219
C         -0.67433       -6.61620       -8.87641
N         -1.39857       -5.66946       -8.18084
C         -0.52415       -4.91263       -7.45283
C         -0.46764       -3.83806       -6.53401
C         -1.40152       -7.50720       -9.70741
C         -0.76739       -8.45329      -10.41679
C         -1.45516       -9.27136      -11.41436
C         -1.56119       -8.83577      -12.74046
C         -1.10400       -7.61264      -13.42780
O         -0.44518       -6.73494      -12.90009
N         -1.54195       -7.68549      -14.73780
C         -2.20185       -8.86838      -14.96662
O         -2.74089       -9.32531      -15.95365
C         -2.20635       -9.59928      -13.70731
C         -2.75605      -10.83687      -13.44608
C         -2.65049      -11.27885      -12.13500
C         -2.03667      -10.51998      -11.13008
C         -2.12325      -11.20202       -9.82831
O         -1.77348      -10.73613       -8.76151
S         -2.85405      -12.79298       -9.97778
C         -3.16595      -12.56194      -11.67425
O         -3.73410      -13.35923      -12.39846
C         -1.32458       -6.67902      -15.65766
C         -1.70843       -6.69289      -16.94370
C         -1.44692       -5.60990      -17.87493
C         -1.90535       -4.36370      -17.64793
C         -1.61191       -3.27403      -18.54979
C         -1.15603       -3.50193      -19.79045
C         -0.91194       -4.89666      -20.30400
C         -0.63201       -5.90342      -19.13222
N         -0.73776       -7.31945      -19.54728
C         -1.58335       -7.54715      -20.49172
C         -2.38312       -6.48083      -21.17276
N         -2.09760       -5.22643      -21.11868
F         -3.44547       -6.85501      -21.89674
F         -1.74395       -8.81182      -20.90042
H         -1.28010        6.20075       -2.51204
H          0.40476        5.80986       -4.23841
H          2.23649        4.22946       -3.85468
H          0.35705        2.78451       -0.33258
H         -0.03335        5.09057       -0.39059
H          5.18904       -0.51527       -1.72528
H          0.26422       -1.25785       -5.40867
H          2.54403       -3.28944       -4.96185
H          2.60826       -4.75695       -6.96997
H          1.50771       -6.98867       -9.01974
H         -2.39905       -5.52151       -8.17545
H         -1.28956       -3.26955       -6.12141
H         -2.47743       -7.38059       -9.79357
H          0.30619       -8.60442      -10.33747
H         -3.24557      -11.41893      -14.22139
H         -0.78468       -5.81819      -15.26394
H         -2.21765       -7.55032      -17.37529
H         -2.49624       -4.12415      -16.76725
H         -1.80919       -2.26275      -18.20550
H         -0.97781       -2.67359      -20.46893
H         -0.03540       -4.88247      -20.96442
H          0.41935       -5.75880      -18.84184
