100

C         14.04164        1.47659        1.42747
C         13.65036        0.63583        2.39676
C         12.29072        0.14119        2.45144
C         11.45649        0.22968        1.39469
C         11.94985        0.83905        0.08568
C         13.08798        1.89271        0.34028
N         13.85902        2.24672       -0.86389
C         13.95956        1.30710       -1.73939
C         13.32273       -0.04000       -1.59288
N         12.37267       -0.30029       -0.76173
F         13.75487       -1.02975       -2.38296
F         14.66632        1.55339       -2.84945
C         10.10922       -0.27272        1.43559
C          9.53378       -1.30497        0.53054
N          8.29311       -1.64813        0.74004
C          7.94205       -0.87117        1.79842
C          9.04327       -0.03468        2.20501
C          8.60386        0.81432        3.35696
S          9.48777        2.00161        4.11372
C          7.18720        0.33781        3.59179
C          6.89244       -0.66802        2.58584
N          5.63409       -1.15356        2.72900
C          5.19694       -0.49724        3.76427
C          6.13396        0.48294        4.39869
C          5.82994        1.25698        5.58419
C          6.38397        2.48501        5.76603
C          6.08170        3.28122        6.94127
C          6.53263        4.50234        7.34247
C          7.55877        5.40853        6.67232
C          6.99227        6.79506        6.27232
N          5.88265        6.71100        5.31723
C          8.86145        5.54597        7.51271
N          9.87904        6.41316        6.89892
C          5.74997        4.79943        8.55336
C          5.67910        5.88400        9.34330
C          4.71818        5.98078       10.52831
C          3.86020        4.73839       10.72854
C          3.94610        3.64475        9.95499
C          4.86623        3.67199        8.85243
C          5.07961        2.76562        7.89132
C          4.48777        1.47078        7.68343
C          4.85898        0.76283        6.59986
C          5.48469        6.36995       11.77633
C          5.54259        5.70107       12.94033
C          6.28942        6.14110       14.07327
C          7.55175        6.92191       14.06686
N          8.10775        7.14773       15.22458
C          7.25999        6.52782       16.08441
C          6.15649        5.92860       15.38582
C          5.24355        5.26921       16.36821
S          3.75603        4.58837       16.07106
C          5.99138        5.46137       17.66182
C          7.17122        6.25970       17.38296
N          7.88620        6.48309       18.51299
C          7.19782        5.84394       19.41581
C          5.96608        5.13532       18.95633
C          5.09715        4.33257       19.78051
C          4.50796        3.22169       19.29710
C          3.68751        2.35372       20.10423
C          3.29226        2.70736       21.33347
C          3.67904        4.02211       21.95144
C          4.94903        4.64974       21.26891
N          5.10954        6.09317       21.53642
C          4.02439        6.74339       21.77486
C          2.66665        6.12021       21.80819
N          2.46412        4.85256       21.88540
F          1.60080        6.92888       21.77004
F          4.12237        8.05655       22.01455
H         15.04530        1.89186        1.43226
H         14.33265        0.34655        3.19171
H         11.98690       -0.32714        3.38497
H         11.12413        1.35304       -0.42450
H         12.60809        2.82022        0.68199
H         10.16187       -1.74191       -0.25916
H          4.18505       -0.63271        4.17410
H          7.02777        2.94114        5.02970
H          7.86955        4.92832        5.73374
H          7.77641        7.40205        5.80722
H          6.65508        7.35635        7.14618
H          6.17316        6.16153        4.51067
H          5.68233        7.64731        4.96790
H          9.31072        4.55512        7.65330
H          8.64125        5.94565        8.50750
H         10.15751        6.03921        5.99110
H         10.72391        6.40435        7.47205
H          6.27349        6.76504        9.13663
H          4.02439        6.80432       10.30988
H          3.13932        4.75360       11.54202
H          3.32102        2.77767       10.12873
H          3.76555        1.08407        8.39294
H          4.41837       -0.21992        6.45462
H          6.00386        7.32397       11.68962
H          5.00417        4.76428       13.06664
H          7.97512        7.26014       13.10988
H          7.49545        5.79427       20.47375
H          4.64962        2.89243       18.27221
H          3.35801        1.41743       19.66130
H          2.63576        2.05386       21.90043
H          3.91240        3.84978       23.01032
H          5.81272        4.16601       21.75113
