106

S          1.08950        1.27326        1.40448
C          2.52794        0.62176        0.43945
C          3.02074        1.76811       -0.44919
C          3.56646        0.31340        1.52680
C          1.93402       -0.54891       -0.38443
C          0.56934       -0.57979       -0.37663
C         -0.10222        0.48375        0.39710
C         -1.39566        0.89520        0.41572
C         -2.38223        0.40851       -0.48477
N         -3.20182        0.06155       -1.22744
C         -1.85586        1.90520        1.32458
N         -2.23891        2.71292        2.06295
C         -0.19026       -1.67744       -0.87756
N         -0.81912       -2.58650       -1.22414
C          2.80550       -1.55942       -0.99712
C          4.03175       -2.14165       -0.36050
N          4.66690       -3.08553       -0.98487
C          3.91934       -3.24311       -2.09338
C          2.82124       -2.28948       -2.13309
C          2.09543       -2.53529       -3.44134
S          1.02166       -1.53134       -4.21695
C          2.72801       -3.81239       -3.94527
C          3.86424       -4.10299       -3.10554
N          4.51223       -5.22532       -3.51047
C          3.77631       -5.63249       -4.50484
C          2.58944       -4.79942       -4.83361
C          1.58851       -5.12283       -5.81441
C          0.94233       -6.31937       -5.72760
C         -0.15918       -6.61810       -6.62914
C         -0.99010       -7.69232       -6.71275
C         -0.96541       -8.99139       -5.92669
C         -2.23691       -9.24565       -5.07741
N         -2.48946       -8.20012       -4.08349
C         -0.67074      -10.19796       -6.85911
N         -0.57282      -11.47380       -6.13687
C         -1.97800       -7.31755       -7.73190
C         -3.10037       -7.91941       -8.15587
C         -4.03014       -7.29019       -9.18275
C         -3.52117       -5.97218       -9.75348
C         -2.38809       -5.37736       -9.34158
C         -1.63538       -6.01209       -8.29300
C         -0.54853       -5.59795       -7.62788
C          0.22101       -4.38687       -7.75586
C          1.23531       -4.17965       -6.89561
C         -4.26168       -8.25687      -10.30907
C         -5.24228       -9.16628      -10.37163
C         -5.40331      -10.10282      -11.44111
C         -6.68965      -10.78257      -11.75975
N         -6.65563      -11.69692      -12.68512
C         -5.34326      -11.71697      -13.02458
C         -4.58480      -10.71973      -12.29815
C         -3.14764      -10.81370      -12.75477
S         -1.88149       -9.74628      -12.59015
C         -3.15584      -12.06923      -13.58699
C         -4.53426      -12.46201      -13.76386
N         -4.62459      -13.55732      -14.55162
C         -3.37691      -13.84173      -14.77353
C         -2.33727      -12.96017      -14.16170
C         -0.89194      -13.12577      -14.21166
C         -0.04989      -12.90747      -13.16383
C          1.38126      -13.07632      -13.44089
C          2.45885      -12.61894      -12.75766
C          2.34707      -11.72026      -11.65881
N          2.27452      -10.95661      -10.78956
C          3.79935      -12.95073      -13.14568
N          4.88261      -13.23466      -13.43833
S          1.56303      -13.94150      -14.95010
C         -0.19829      -13.67800      -15.47162
C         -0.18993      -12.69329      -16.64238
C         -0.65943      -15.06940      -15.93221
C         -0.51044      -12.75231      -11.82035
N         -0.89113      -12.69426      -10.72650
H          3.29311        2.64783        0.14882
H          2.26335        2.08290       -1.17664
H          3.91343        1.47112       -1.00962
H          3.66129        1.12520        2.26029
H          4.56757        0.20416        1.09618
H          3.31826       -0.59722        2.08563
H          4.37567       -1.80034        0.61569
H          3.99036       -6.53410       -5.10039
H          1.15978       -7.03805       -4.94463
H         -0.12516       -8.94191       -5.21980
H         -2.14611      -10.19435       -4.53654
H         -3.12207       -9.34529       -5.70971
H         -1.74947       -8.21655       -3.38417
H         -3.35323       -8.41732       -3.58889
H          0.27444      -10.03388       -7.39102
H         -1.45274      -10.30349       -7.61801
H          0.21600      -11.44428       -5.49259
H         -0.36192      -12.21330       -6.80894
H         -3.41457       -8.87174       -7.74825
H         -4.98556       -7.07900       -8.68526
H         -4.11015       -5.50709      -10.53922
H         -2.04562       -4.44477       -9.77235
H         -0.01938       -3.66787       -8.52897
H          1.83121       -3.27563       -6.98470
H         -3.54107       -8.18111      -11.11177
H         -5.96183       -9.23246       -9.55513
H         -7.59908      -10.48403      -11.22580
H         -3.09554      -14.71018      -15.36944
H          0.24502      -11.72578      -16.36623
H         -1.20715      -12.50504      -17.00320
H          0.38283      -13.08923      -17.49093
H         -0.92451      -15.71268      -15.08384
H          0.10183      -15.59529      -16.52168
H         -1.52644      -14.99910      -16.59615
