113

C        -12.13392        4.56623       -3.37622
O        -12.21999        4.63466       -2.16319
C        -12.49206        5.65201       -4.28719
C        -12.19646        5.28295       -5.58256
C        -12.43007        6.14330       -6.65369
C        -12.97138        7.41413       -6.38648
C        -13.26674        7.79642       -5.05364
C        -13.02571        6.90486       -3.99365
Cl       -13.92859        9.38320       -4.68832
Cl       -13.25936        8.51102       -7.72927
C        -11.62134        3.94085       -5.57690
O        -11.23991        3.33057       -6.56400
C        -11.54733        3.46666       -4.18042
C        -10.97420        2.29764       -3.81708
C        -10.82592        1.72443       -2.45248
C         -9.75012        0.85372       -2.21426
C         -9.50459        0.27538       -0.95148
C        -10.35583        0.46830        0.23353
C        -11.50149        1.24264        0.28460
S        -11.90201        2.03715       -1.15708
C         -9.76439       -0.25738        1.22664
C         -8.63137       -0.86210        0.78318
C         -7.98673       -1.60935        1.77663
C         -8.67712       -1.54576        2.99330
S        -10.06765       -0.57564        2.84091
C         -8.42807       -0.55343       -0.57195
C         -7.33014       -0.94860       -1.49837
C         -6.24149       -1.67234       -1.17957
C         -5.17060       -2.04513       -2.15260
C         -5.18373       -1.63146       -3.50848
C         -4.16069       -2.04730       -4.36852
C         -4.00133       -1.76325       -5.67883
C         -4.93178       -0.85754       -6.50336
C         -4.42276        0.59729       -6.49325
N         -4.38407        1.13916       -5.13644
C         -5.18566       -1.32125       -7.95096
N         -5.71169       -2.68196       -7.99423
C         -2.76009       -2.48062       -6.07120
C         -2.11296       -2.61951       -7.23609
C         -0.81690       -3.43481       -7.34603
C         -0.38220       -4.09168       -6.03263
C         -1.05618       -3.94256       -4.87661
C         -2.27851       -3.12773       -4.87451
C         -3.12899       -2.85218       -3.89548
C         -3.07986       -3.26295       -2.56242
C         -4.10483       -2.85552       -1.69568
C          0.34505       -2.59717       -7.86106
C          0.28866       -1.25819       -7.95600
C          1.38878       -0.38410       -8.40651
C          1.23152        0.98729       -8.19930
C          2.21243        1.92946       -8.53574
C          3.52478        1.58731       -9.11359
C          3.94540        0.30886       -9.45820
S          2.84345       -0.94355       -9.11602
C          4.19995        2.77716       -9.18292
C          3.43579        3.79102       -8.70336
C          4.05768        5.03450       -8.71688
C          5.35788        4.93563       -9.23310
S          5.70906        3.31894       -9.66202
C          2.18598        3.32495       -8.31843
C          1.07956        4.13803       -7.73644
C         -0.20368        3.80559       -7.93957
Cl        -1.59438        4.57532       -7.20118
C         -3.31266        4.82629       -6.92026
C         -3.76561        5.72933       -5.93865
C         -5.14465        5.84829       -5.73628
C         -6.04794        5.10994       -6.48364
C         -5.62219        4.22085       -7.46406
C         -4.24375        4.07512       -7.68225
Cl        -3.70567        2.95495       -8.93007
C         -7.41056        5.43102       -6.05915
O         -8.43586        4.95416       -6.52181
C         -7.32351        6.42582       -4.98462
C         -8.34583        6.97800       -4.32254
C         -5.88743        6.68010       -4.78477
O         -5.39891        7.44675       -3.96917
H        -12.19142        5.84123       -7.66548
H        -13.24126        7.18470       -2.97028
H        -10.51796        1.72012       -4.61785
H         -9.07570        0.65954       -3.03453
H        -12.09322        1.35077        1.18387
H         -7.07907       -2.17610        1.67100
H         -8.36721       -2.04320        3.90214
H         -7.44029       -0.60531       -2.50774
H         -6.11111       -2.02130       -0.17326
H         -5.96695       -1.00980       -3.89448
H         -5.93558       -0.85295       -6.03346
H         -5.10806        1.22842       -7.10132
H         -3.40563        0.64497       -6.93969
H         -5.36213        1.19335       -4.76683
H         -4.02242        2.11949       -5.18166
H         -4.28331       -1.23311       -8.58103
H         -5.93685       -0.63981       -8.40915
H         -4.98019       -3.34825       -7.65905
H         -5.91288       -2.91997       -8.99242
H         -2.47232       -2.15315       -8.13587
H         -1.01356       -4.23592       -8.08918
H          0.51383       -4.70600       -6.03322
H         -0.70479       -4.42654       -3.97069
H         -2.27447       -3.88467       -2.19551
H         -4.06984       -3.17960       -0.66279
H          1.26291       -3.11482       -8.12388
H         -0.61176       -0.74207       -7.64399
H          0.32738        1.30137       -7.71136
H          4.92140        0.11060       -9.88081
H          3.60180        5.95366       -8.37546
H          6.04185        5.76562       -9.34327
H          1.31857        5.01728       -7.14767
H         -0.46605        2.99210       -8.59945
H         -3.06670        6.30200       -5.34222
H         -6.33961        3.65148       -8.04183
H         -9.37015        6.70547       -4.56390
H         -8.16561        7.70688       -3.53917
