98

C         -3.64652       -2.57657        4.43267
C         -2.47770       -2.86366        3.78396
C         -1.82934       -4.00859        4.29943
C         -2.46284       -4.56532        5.37646
S         -3.90979       -3.69913        5.72395
C         -0.63994       -4.35608        3.57337
O          0.15454       -5.23525        3.84216
C         -0.65953       -3.35986        2.41087
C         -1.71454       -2.32040        2.68687
C         -1.84562       -1.09900        2.14680
N         -2.78876       -0.14913        2.61109
O         -2.43451        0.61787        3.51268
O         -3.91874       -0.19012        2.10268
N         -0.93935       -0.54597        1.21258
O          0.05756        0.03405        1.65533
O         -1.19192       -0.72817        0.01383
C          0.08998       -3.53848        1.30915
C          1.03060       -4.59954        1.07306
C          2.33762       -4.36949        0.80531
C          2.99739       -5.65966        0.63202
C          1.96216       -6.65998        0.78494
C          0.80261       -6.04493        1.03911
F          2.13741       -7.98058        0.69850
C          4.29784       -5.85976        0.38664
C          4.96489       -7.14273        0.21030
C          6.26659       -6.90348       -0.05993
C          6.48914       -5.45577       -0.01172
C          5.32430       -4.85175        0.23811
F          5.14324       -3.52820        0.34197
C          7.22849       -7.94619       -0.31545
C          8.32272       -7.74115       -1.06098
C          9.18886       -8.81605       -1.39349
O          9.34598       -9.89854       -0.57437
C         10.21435      -10.79459       -1.13088
C         10.61193      -10.27813       -2.35915
C          9.99565       -8.99348       -2.51842
C         10.15757       -8.02254       -3.62723
F          9.44773       -6.87484       -3.46517
F         11.45185       -7.64053       -3.77893
F          9.75147       -8.53684       -4.81779
O         11.51392      -10.95523       -3.11680
C         11.40897      -10.77666       -4.52083
C         10.55857      -12.02508       -0.50546
C         10.51504      -12.15475        0.82820
C         10.82202      -13.38875        1.51277
C         11.31304      -13.45263        2.77416
C         11.45023      -14.86427        3.13396
C         10.96401      -15.61310        1.99331
C         10.58206      -14.75616        1.04582
F         10.88046      -16.94679        1.91435
C         11.92695      -15.35878        4.28230
C         12.06748      -16.77020        4.62739
C         12.61470      -16.85111        5.86007
C         12.80026      -15.48739        6.36546
C         12.40671      -14.61906        5.42889
F         12.43421      -13.28595        5.54277
C         12.88455      -18.10342        6.52840
C         13.81548      -18.22111        7.48721
C         14.10674      -19.45863        8.16661
C         14.74417      -19.65683        9.33332
C         15.31363      -18.75509       10.38299
C         15.97590      -17.59545       10.23834
N         16.52201      -16.88683       11.33917
O         17.69353      -17.13305       11.65307
O         15.76832      -16.10249       11.92953
N         16.48714      -17.11698        9.00479
O         16.16346      -15.97306        8.66451
O         17.20355      -17.88518        8.34601
C         15.13969      -19.49614       11.61152
C         15.28256      -19.26642       12.95427
S         14.93000      -20.70190       13.85361
C         14.59074      -21.61155       12.42994
C         14.74520      -20.82398       11.31970
C         14.55342      -21.05422        9.91606
O         14.23788      -22.08605        9.35287
H         -4.38090       -1.80027        4.26235
H         -2.17092       -5.43017        5.95890
H          0.02294       -2.86211        0.46140
H          2.82183       -3.40688        0.75039
H         -0.14163       -6.53331        1.21422
H          4.48625       -8.10947        0.25264
H          7.43354       -4.96409       -0.16124
H          6.99668       -8.93749        0.07121
H          8.52327       -6.75876       -1.47512
H         12.14333      -11.43198       -4.99897
H         11.67345       -9.76108       -4.81809
H         10.41554      -11.05821       -4.88603
H         10.86617      -12.84627       -1.14410
H         10.25509      -11.30401        1.45861
H         11.57468      -12.61847        3.40438
H         10.14858      -15.01747        0.09515
H         11.80172      -17.59903        3.99046
H         13.18709      -15.22599        7.33553
H         12.28861      -18.96034        6.21790
H         14.36639      -17.33149        7.74293
H         13.67374      -20.33560        7.67220
H         15.56636      -18.37305       13.49532
H         14.29031      -22.65071       12.48645
