106

C          3.77642       -5.38891       -7.25638
C          4.61585       -4.34317       -6.85715
F          5.84818       -4.66524       -6.43373
C          4.23456       -2.97707       -6.84425
F          5.13603       -2.10175       -6.37006
C          2.96481       -2.51766       -7.25159
C          2.11036       -3.54082       -7.71703
C          2.51080       -4.96321       -7.68004
N          1.46957       -5.71170       -8.07374
N          0.53565       -4.78873       -8.33903
N          0.87188       -3.49673       -8.23992
C         -0.83025       -5.18616       -8.57874
C          2.61410       -1.09493       -7.16540
N          3.49916       -0.15384       -7.43238
C          2.82121        1.00575       -7.23269
C          1.47201        0.72148       -6.83996
C          0.74224        1.99254       -6.61639
O         -0.40712        2.16792       -6.27914
C          1.78646        3.00028       -6.90547
C          3.00710        2.32269       -7.26980
N          3.97675        3.23724       -7.53297
C          3.36629        4.37389       -7.33711
C          1.94681        4.31633       -6.92826
C          1.26188       -0.58560       -6.74502
C          0.03695       -1.20982       -6.36598
C         -0.09674       -2.30657       -5.60714
C         -1.37061       -2.95998       -5.32940
C         -2.49793       -2.22372       -5.15555
C         -3.76297       -2.87049       -4.88171
C         -5.01876       -2.37091       -4.73177
C         -5.57340       -0.96535       -4.92495
C         -5.47447       -0.16995       -3.59768
N         -6.00619        1.19399       -3.69268
C         -4.95469       -0.14062       -6.09248
N         -5.11671       -0.76178       -7.41127
C         -5.82402       -3.53369       -4.31686
C         -7.11766       -3.65820       -3.97548
C         -7.73123       -4.99918       -3.55236
C         -6.71856       -6.14042       -3.47778
C         -5.43595       -6.02101       -3.85527
C         -4.97992       -4.72653       -4.27658
C         -3.75943       -4.32999       -4.65272
C         -2.55304       -5.09262       -4.84613
C         -1.42905       -4.42945       -5.17156
C         -8.90563       -5.32467       -4.44397
C         -9.09855       -6.45310       -5.15995
C        -10.29018       -6.60466       -6.01641
N        -11.31171       -5.78117       -5.99427
C        -12.17535       -6.33189       -6.87987
C        -11.63050       -7.54462       -7.42627
C        -12.61108       -8.11990       -8.38380
O        -12.53221       -9.13435       -9.03902
C        -13.71680       -7.13092       -8.33692
C        -13.37046       -6.08961       -7.40207
N        -14.36611       -5.16629       -7.33907
C        -15.24082       -5.63120       -8.18859
C        -14.90764       -6.89362       -8.87643
C        -10.40968       -7.77961       -6.95623
C         -9.53248       -8.87391       -7.24690
C         -8.19119       -8.81424       -7.27962
C         -7.30287       -9.93937       -7.58643
C         -7.55851      -11.31494       -7.40865
F         -8.74171      -11.69888       -6.89974
C         -6.62099      -12.33697       -7.71263
F         -6.98041      -13.61289       -7.50052
C         -5.33265      -12.10029       -8.20867
C         -5.02903      -10.74056       -8.35694
C         -5.99142       -9.66903       -8.04831
N         -5.37799       -8.49217       -8.27431
N         -4.16313       -8.86758       -8.69252
N         -3.88271      -10.17552       -8.76477
C         -3.13890       -7.88618       -8.94725
H          4.07918       -6.42618       -7.22821
H         -0.86878       -5.74175       -9.51740
H         -1.47007       -4.30224       -8.62767
H         -1.14763       -5.82501       -7.75028
H          3.84387        5.35779       -7.45855
H          1.27131        5.12036       -6.71579
H         -0.85326       -0.70561       -6.74453
H          0.77870       -2.81566       -5.21485
H         -2.46597       -1.14405       -5.17154
H         -6.64081       -1.06094       -5.17075
H         -4.42987       -0.10698       -3.27104
H         -6.02951       -0.69524       -2.81176
H         -6.96158        1.17761       -4.04628
H         -6.04589        1.61249       -2.76403
H         -3.89623        0.06297       -5.92187
H         -5.42937        0.84573       -6.14985
H         -6.10045       -0.70929       -7.67559
H         -4.61797       -0.19493       -8.09705
H         -7.77517       -2.79573       -3.97485
H         -8.12066       -4.86294       -2.53373
H         -7.06890       -7.09833       -3.10229
H         -4.74532       -6.85381       -3.80027
H         -2.56888       -6.17114       -4.75317
H         -0.51029       -4.98416       -5.33844
H         -9.66885       -4.55149       -4.49653
H         -8.38872       -7.27123       -5.12131
H        -16.19791       -5.13560       -8.41360
H        -15.48356       -7.43280       -9.60285
H        -10.03799       -9.80076       -7.51668
H         -7.67935       -7.86652       -7.12137
H         -4.63453      -12.89430       -8.43135
H         -3.60186       -6.90674       -9.09271
H         -2.58837       -8.17393       -9.84588
H         -2.47447       -7.86485       -8.08012
