137

C         -0.82810        0.14783        2.74814
C         -1.12116        0.27375        4.10814
C         -0.12653        0.06896        5.06003
C          1.16010       -0.28938        4.65898
C          1.46509       -0.46207        3.30165
C          2.73823       -0.91829        2.91473
C          2.99227       -1.16786        1.57582
C          2.02528       -0.81904        0.61901
C          0.76492       -0.35429        0.95997
C          0.45913       -0.21560        2.32295
C          2.56569       -1.01225       -0.74456
O          1.99539       -0.77513       -1.78882
C          3.97916       -1.48902       -0.55034
C          4.09494       -1.87019        0.86317
C          4.69340       -2.97807        1.36701
C          5.13377       -4.02598        0.51553
N          5.40493       -4.94159       -0.15853
C          4.71477       -3.28311        2.76513
N          4.74352       -3.49942        3.90073
C          4.88577       -1.26737       -1.51966
C          6.35026       -1.35151       -1.40434
C          7.02728       -2.54487       -1.69287
C          8.40594       -2.59687       -1.51084
C          9.11456       -1.46767       -1.05248
C          8.47283       -0.25795       -0.86095
C          7.08681       -0.20138       -1.04516
C         10.49308       -1.83089       -0.82094
C         10.68638       -3.18456       -1.14019
C          9.39362       -3.75108       -1.75735
C          8.96098       -5.09042       -1.10409
C          8.68018       -5.03505        0.39697
C          9.60738       -3.94803       -3.29457
C          9.93320       -2.68255       -4.10209
C         11.91190       -3.81323       -0.89981
C         12.98762       -3.09648       -0.32314
C         12.75631       -1.71708       -0.07142
C         11.53287       -1.08222       -0.32068
C         14.29976       -3.74821        0.02603
C         14.44546       -5.09038        0.46872
C         15.72265       -5.69122        0.80814
N         15.74928       -6.97144        1.24242
C         14.60138       -7.68317        1.34604
C         13.40007       -7.12154        1.02148
N         13.32424       -5.83678        0.59303
C         12.15745       -7.82677        1.11148
N         11.16087       -8.41478        1.18743
C         14.73836       -9.02799        1.82066
N         14.83198      -10.11763        2.20553
C         16.95953       -5.00442        0.72702
C         16.85284       -3.64192        0.30372
C         15.52521       -3.01429       -0.04429
N         15.66555       -1.72964       -0.42233
S         17.25406       -1.32580       -0.32402
N         17.86860       -2.77247        0.14915
C         18.30108       -5.61008        1.03331
C         19.34800       -4.84334        1.58096
C         20.61227       -5.39221        1.77651
C         20.86220       -6.75124        1.51331
C         19.85392       -7.55204        1.02547
C         18.59700       -6.97494        0.77506
C         22.23764       -7.06003        1.82737
C         22.86835       -5.88257        2.25386
C         21.87165       -4.70937        2.32287
C         22.38822       -3.57294        1.39112
C         21.54602       -2.30370        1.30457
C         21.66776       -4.22482        3.78822
C         21.10001       -5.26411        4.75887
C         24.21995       -5.87593        2.55091
C         24.94432       -7.07693        2.56187
C         24.30405       -8.25445        2.12843
C         22.94972       -8.24837        1.75432
C         26.36996       -7.11662        2.95807
C         26.96257       -6.35758        3.89955
C         28.40303       -6.17329        4.19472
C         29.36130       -7.12894        4.18783
C         30.69524       -6.87627        4.61188
N         31.78390       -6.66555        4.95829
C         29.08343       -8.47881        3.82672
N         28.85762       -9.57685        3.52359
C         28.54664       -4.76765        4.68857
C         27.26369       -4.27201        4.94856
C         26.98473       -2.97290        5.33188
C         28.05864       -2.10563        5.50566
C         27.83216       -0.77248        5.86929
C         28.90277        0.09489        6.07277
C         30.20736       -0.36452        5.91625
C         30.44844       -1.68643        5.52991
C         29.38831       -2.57761        5.30682
C         29.62034       -3.90900        4.87986
C         26.25936       -5.30010        4.69960
O         25.12372       -5.26191        5.12250
H         -1.62400        0.31241        2.02451
H         -2.12950        0.52814        4.42564
H         -0.35443        0.17173        6.11826
H          1.91704       -0.45998        5.42267
H          3.48770       -1.10597        3.67787
H          0.03554       -0.13316        0.18532
H          4.54994       -0.86662       -2.47681
H          6.48638       -3.41842       -2.04405
H          9.03035        0.62579       -0.56796
H          6.58966        0.75769       -0.91092
H          9.73603       -5.85073       -1.26827
H          8.05930       -5.46915       -1.60368
H          9.56416       -4.74772        0.97118
H          8.35651       -6.01996        0.75243
H          7.88817       -4.32336        0.63426
H          8.70912       -4.39535       -3.74013
H         10.42343       -4.66432       -3.45702
H          9.05644       -2.03258       -4.19414
H         10.24492       -2.95119       -5.11655
H         10.74778       -2.10046       -3.66162
H         12.00572       -4.86589       -1.14895
H         13.53309       -1.08460        0.35088
H         11.41220       -0.02803       -0.09843
H         19.19617       -3.80673        1.85910
H         20.02308       -8.60435        0.82468
H         17.84186       -7.63957        0.36382
H         22.51261       -3.96147        0.37097
H         23.38961       -3.26216        1.71782
H         20.58528       -2.48760        0.82358
H         22.06076       -1.55851        0.68878
H         21.37279       -1.85154        2.28425
H         20.97839       -3.37255        3.80896
H         22.62005       -3.86127        4.19592
H         20.08581       -5.56355        4.47541
H         21.03809       -4.84081        5.76708
H         21.72486       -6.15960        4.81264
H         24.67826       -4.92981        2.80892
H         24.85214       -9.19447        2.08282
H         22.47232       -9.16665        1.42884
H         26.95345       -7.80614        2.35102
H         25.95448       -2.65449        5.46700
H         26.81828       -0.39573        5.99434
H         28.71663        1.12714        6.35803
H         31.04162        0.31045        6.09199
H         31.47958       -2.01406        5.40989
H         30.64278       -4.22125        4.68922
