89

C         -1.02844       -4.98523       -4.49310
C         -2.24428       -4.95516       -3.78111
C         -3.16105       -3.94726       -4.07852
C         -2.91643       -2.96830       -5.05238
C         -1.70465       -3.01926       -5.74301
C         -0.77189       -4.01464       -5.46918
S         -4.54096       -4.13765       -3.08824
C         -3.83588       -5.52573       -2.35069
N         -2.63720       -5.84654       -2.79265
C         -4.50729       -6.28896       -1.32441
S         -6.05568       -5.86051       -0.75005
C         -6.13286       -7.15788        0.36193
C         -4.97924       -7.91747        0.29241
C         -4.04852       -7.42065       -0.67679
C         -7.28744       -7.35823        1.21123
C         -7.48653       -8.35717        2.14507
C         -8.75595       -8.25980        2.79317
C         -9.50702       -7.19526        2.33505
S         -8.64941       -6.31162        1.15797
C        -10.82968       -6.79180        2.73886
S        -11.40662       -7.10889        4.31447
C        -12.92204       -6.35729        4.01280
C        -12.98396       -5.88389        2.71624
C        -11.78224       -6.12717        1.98882
C        -13.87228       -6.34378        5.06640
C        -14.79503       -5.37746        5.20384
C        -15.70369       -5.39630        6.29243
S        -15.36078       -6.08896        7.84874
C        -16.91899       -5.72065        8.50508
C        -17.61323       -5.07187        7.54280
C        -16.95388       -4.87911        6.34244
N        -17.63985       -4.21970        5.35912
C        -18.84808       -3.97090        5.99614
N        -19.88522       -3.28072        5.28916
O        -19.62999       -2.95364        4.12258
O        -20.93601       -3.07154        5.89853
C        -18.87685       -4.46342        7.31361
C        -17.28143       -6.09519        9.84000
S        -18.89682       -6.46402       10.24676
C        -18.51312       -6.78181       11.88511
C        -17.15760       -6.61467       12.10763
C        -16.44992       -6.23109       10.93267
C        -19.53479       -7.16527       12.83152
C        -20.88876       -7.33681       12.60658
C        -21.60135       -7.71828       13.78174
C        -20.78037       -7.81528       14.88741
S        -19.15510       -7.47881       14.46974
C        -21.16323       -8.17413       16.23062
S        -20.33446       -7.57284       17.60685
C        -21.31218       -8.45728       18.70112
C        -22.29288       -9.15467       18.01836
C        -22.21088       -8.99098       16.60594
C        -21.02859       -8.38472       20.09215
C        -21.33237       -9.41240       20.90014
C        -21.04683       -9.35867       22.29163
N        -20.48538       -8.36201       22.94552
C        -20.38162       -8.65789       24.29204
C        -19.84208       -7.81468       25.28298
C        -19.80789       -8.24225       26.61348
C        -20.29831       -9.49561       26.96414
C        -20.83704      -10.35157       25.99825
C        -20.86874       -9.90876       24.66719
S        -21.46514      -10.71644       23.27619
H         -0.30233       -5.76241       -4.27947
H         -3.64961       -2.19535       -5.26244
H         -1.49346       -2.27024       -6.50270
H          0.16654       -4.04082       -6.01800
H         -4.79654       -8.79459        0.90130
H         -3.08631       -7.87461       -0.88689
H         -6.76563       -9.13575        2.36062
H         -9.09963       -8.95603        3.54869
H        -13.85426       -5.39964        2.29224
H        -11.63769       -5.83552        0.95483
H        -13.80341       -7.15691        5.78718
H        -14.84913       -4.55838        4.49263
H        -17.34657       -3.98220        4.41915
H        -19.71126       -4.38448        8.00038
H        -16.67716       -6.75789       13.06822
H        -15.38131       -6.05226       10.90654
H        -21.36330       -7.19540       11.64285
H        -22.67030       -7.89172       13.80394
H        -23.04121       -9.76421       18.50965
H        -22.88227       -9.47393       15.90667
H        -20.53440       -7.49699       20.48340
H        -21.79275      -10.31165       20.50846
H        -19.46084       -6.83770       25.00319
H        -19.39482       -7.58779       27.37713
H        -20.26712       -9.81679       28.00267
H        -21.22196      -11.32912       26.27115
