112

C        -10.35938       14.57106        3.61845
C        -11.70654       14.54734        3.76557
C        -12.46541       15.69575        4.13606
N        -13.09670       16.62262        4.44422
C        -12.49597       13.38888        3.53144
N        -13.13791       12.43651        3.35834
C         -9.47413       15.77191        3.75540
C         -8.21669       15.46064        3.23684
C         -7.13797       16.33902        3.21142
C         -7.33539       17.63743        3.72668
C         -8.59243       17.96639        4.24971
C         -9.67031       17.04264        4.28904
S         -8.62423       19.59882        4.81169
C         -7.00105       19.86559        4.36792
C         -6.42599       18.74393        3.81969
C         -8.17296       14.07355        2.76532
O         -7.22822       13.57328        2.19377
C         -9.48728       13.45488        3.15882
C         -9.69085       12.12604        3.18238
C         -8.71043       11.18427        2.76597
O         -8.64330       10.73705        1.47422
C         -7.60440        9.85072        1.33265
C         -7.01600        9.70650        2.57677
C         -7.73231       10.52063        3.49598
C         -7.50563       10.64534        4.91766
O         -6.63258       10.03104        5.52247
C         -7.33067        9.23470        0.08621
C         -6.12949        8.73533       -0.24942
C         -5.87832        8.04733       -1.51649
C         -6.50629        8.45596       -2.65436
C         -6.48439        7.60321       -3.82591
C         -7.18063        7.67386       -4.99481
C         -7.99385        8.84514       -5.53185
C         -7.13045        9.73322       -6.48071
N         -5.97862       10.37218       -5.84288
C         -9.30672        8.52573       -6.29490
N        -10.31897        7.84638       -5.49018
C         -6.99928        6.33610       -5.57187
C         -7.74246        5.62338       -6.43199
C         -7.50312        4.14368       -6.68764
C         -6.21914        3.60294       -6.07886
C         -5.47653        4.31082       -5.21102
C         -5.95673        5.61443       -4.84416
C         -5.67834        6.36686       -3.77557
C         -4.80806        6.11324       -2.65812
C         -4.92119        6.91465       -1.58227
C         -7.53133        3.89886       -8.16389
C         -8.62612        3.50668       -8.83430
C         -8.55275        3.35323      -10.24221
O         -7.65285        4.06124      -11.00123
C         -7.76324        3.71752      -12.31894
C         -8.77125        2.77332      -12.40649
C         -9.27209        2.53381      -11.10041
C        -10.30114        1.58639      -10.73744
O        -10.86269        0.86432      -11.55612
C         -6.92788        4.29312      -13.31132
C         -7.05696        3.96411      -14.60240
C         -6.23711        4.52486      -15.64426
C         -6.58615        4.64225      -16.93110
C         -7.81684        4.37467      -17.69055
C         -9.09343        4.63561      -17.30705
C        -10.21439        4.40847      -18.15649
N        -11.13119        4.21275      -18.84108
C         -9.42234        5.26100      -16.06367
N         -9.73177        5.78195      -15.07881
C         -7.37792        4.05201      -19.08136
C         -6.03533        4.42521      -19.21292
C         -5.48810        4.86695      -17.92158
O         -4.35951        5.25939      -17.71333
C         -5.31468        4.33402      -20.39602
C         -5.98625        3.83152      -21.53172
C         -7.31972        3.41858      -21.40086
C         -8.03186        3.50475      -20.17792
S         -7.93623        2.81969      -22.89775
C         -6.47202        3.12629      -23.71210
C         -5.51663        3.65212      -22.87568
H         -6.17811       16.02747        2.80791
H        -10.60248       17.36729        4.73548
H         -6.54168       20.83100        4.53237
H         -5.39601       18.71447        3.48390
H        -10.61167       11.67803        3.53212
H         -6.18314        9.05832        2.81492
H         -8.18398       11.32530        5.45917
H         -8.16862        9.18445       -0.60313
H         -5.29816        8.75905        0.45096
H         -7.16735        9.31339       -2.67158
H         -8.28795        9.47769       -4.68269
H         -7.75279       10.53477       -6.89887
H         -6.77366        9.13636       -7.32836
H         -6.29309       11.01062       -5.11377
H         -5.48076       10.93899       -6.52813
H         -9.09906        7.96045       -7.20876
H         -9.75572        9.46328       -6.64517
H         -9.95362        6.95670       -5.15195
H        -11.12760        7.63224       -6.07240
H         -8.62466        6.02765       -6.90257
H         -8.33010        3.59488       -6.21410
H         -5.91637        2.59305       -6.33976
H         -4.56899        3.91699       -4.77052
H         -4.10533        5.28988       -2.69024
H         -4.29717        6.72993       -0.71254
H         -6.60179        4.09447       -8.69753
H         -9.56611        3.32879       -8.32130
H         -9.11334        2.28208      -13.30637
H        -10.56284        1.52710       -9.66896
H         -6.20264        5.03373      -12.98456
H         -7.79485        3.22834      -14.90967
H         -5.21592        4.77414      -15.34720
H         -4.27303        4.63967      -20.43742
H         -9.05479        3.14775      -20.14364
H         -6.37762        2.90289      -24.76597
H         -4.51775        3.90765      -23.20885
