80

C         -8.51902       -3.03653        3.79119
C         -8.18508       -4.00781        2.90747
C         -7.86719       -5.34537        3.29364
N         -7.61055       -6.43397        3.58614
C         -8.12321       -3.80976        1.49746
N         -8.06505       -3.66753        0.34654
C         -8.60514       -3.19113        5.28280
C         -9.01015       -1.97881        5.84212
C         -9.19628       -1.75675        7.20422
C         -8.95802       -2.83287        8.08242
C         -8.54736       -4.05682        7.54146
C         -8.36400       -4.25464        6.14725
S         -8.30734       -5.23533        8.77980
C         -8.74159       -4.14201       10.01197
C         -9.06359       -2.90289        9.51175
C         -9.20682       -0.96365        4.81028
O         -9.55153        0.17690        5.04344
C         -8.88919       -1.62365        3.49400
C         -8.91025       -0.93956        2.33793
C         -9.27521        0.44935        2.17689
C         -8.77969        1.20786        1.19081
C         -9.13375        2.59640        1.05087
C         -9.12366        3.22301       -0.13305
C         -9.46431        4.59267       -0.22257
N         -9.46072        5.16223       -1.47712
C         -9.69420        6.49947       -1.32996
C         -9.76040        7.71019       -2.05651
C         -9.91903        8.69173       -1.09080
N        -10.12421        8.09282        0.13337
C         -9.90669        6.75568       -0.01840
C         -9.80239        5.55564        0.71600
C         -9.88550       10.10290       -1.19617
C         -9.47696       10.88195       -0.18428
C         -9.32167       12.30895       -0.31779
C         -8.91182       13.07924        0.69856
C         -8.68797       14.49385        0.54917
C         -8.28567       15.26545        1.56885
C         -7.95953       16.65726        1.40868
C         -8.74109       17.65972        0.98581
C        -10.15268       17.79645        0.58612
C        -11.21902       17.11521        1.07631
C        -12.54766       17.29786        0.59622
N        -13.62932       17.42681        0.19403
C        -11.12580       16.22311        2.18612
N        -11.10677       15.53532        3.12089
C        -10.22186       19.01203       -0.29100
C         -8.98360       19.66160       -0.24525
C         -8.02563       18.90680        0.56963
O         -6.87596       19.22431        0.79449
C         -8.70155       20.86377       -0.88447
C         -9.74967       21.48878       -1.59227
C        -10.99481       20.84965       -1.65066
C        -11.24498       19.59918       -1.02708
S        -12.13531       21.78833       -2.54448
C        -11.00405       23.02835       -2.83452
C         -9.77323       22.73992       -2.29496
H         -9.51204       -0.78302        7.56977
H         -8.03925       -5.23296        5.81723
H         -8.74011       -4.45785       11.04634
H         -9.36402       -2.07329       10.14081
H         -8.63691       -1.39882        1.39537
H        -10.00086        0.87537        2.86839
H         -8.06067        0.80449        0.48166
H         -9.41085        3.12192        1.96254
H         -8.86221        2.67692       -1.03611
H         -9.26453        4.72281       -2.36703
H         -9.62073        7.86015       -3.11745
H        -10.32628        8.52821        1.02388
H         -9.90341        5.42157        1.78370
H        -10.10758       10.53605       -2.16849
H         -9.18750       10.45670        0.77411
H         -9.52224       12.74201       -1.29493
H         -8.70810       12.64080        1.67465
H         -8.81756       14.91417       -0.44614
H         -8.10709       14.84024        2.55576
H         -6.90451       16.86066        1.61175
H         -7.71421       21.31201       -0.81441
H        -12.23348       19.16886       -1.12748
H        -11.29274       23.91014       -3.39020
H         -8.92225       23.40529       -2.38041
