97

C         -2.00682       -0.91400       -0.41215
C         -0.70466       -0.91884       -0.02553
C          0.11368       -2.08668       -0.07348
N          0.78668       -3.03301       -0.11507
C         -0.02729        0.25662        0.37851
N          0.54471        1.21002        0.73080
C         -2.74349       -2.07639       -1.01022
C         -3.84615       -1.57589       -1.70569
C         -4.77042       -2.38164       -2.36455
C         -4.57443       -3.78493       -2.34272
C         -3.46266       -4.29578       -1.65855
C         -2.54104       -3.45655       -0.97543
S         -3.39789       -6.02009       -1.77486
C         -4.83092       -6.09389       -2.69295
C         -5.35990       -4.84389       -2.91897
C         -3.90749       -0.10016       -1.58905
O         -4.61661        0.65067       -2.22814
C         -2.89132        0.27746       -0.54843
C         -2.93815        1.42959        0.15836
C         -3.91355        2.54449        0.00711
C         -5.11149        2.58092        0.72236
C         -5.34837        1.88117        1.98835
O         -4.45866        1.44160        2.69450
S         -7.01558        1.96807        2.47051
C         -7.36259        3.12390        1.20720
O         -8.49505        3.48495        0.95393
C         -6.14598        3.48414        0.43806
C         -5.97419        4.57204       -0.45502
C         -4.69428        4.64041       -1.06623
C         -3.71404        3.63867       -0.84379
C         -2.42009        3.95320       -1.46120
O         -1.37353        3.38646       -1.20982
S         -2.53762        5.32538       -2.52135
C         -4.13438        5.71943       -1.92148
O         -4.66390        6.78414       -2.18315
C         -7.05697        5.63982       -0.51566
S         -6.69769        7.00981        0.60690
C         -7.54386        8.25989       -0.39931
C         -8.26386        7.54313       -1.58665
C         -7.49666        6.23141       -1.84465
C         -8.14835        8.56268       -2.75398
O         -9.07134        9.29090       -3.11741
N         -6.91407        8.70556       -3.33656
N         -9.67265        7.22188       -1.17679
C        -10.86751        7.13080       -1.87187
C        -11.06142        6.79993       -3.21493
C        -10.16504        6.15842       -4.18425
O         -9.43328        5.21952       -3.93656
S        -10.63256        6.52698       -5.82696
C        -12.24268        6.88050       -5.27955
O        -13.15852        7.17740       -6.02333
C        -12.33230        6.82039       -3.81204
C        -13.51479        6.80149       -3.07121
C        -13.36335        7.20057       -1.74370
C        -12.08586        7.40704       -1.19009
C        -12.17007        7.94758        0.17518
O        -11.20090        8.30777        0.82294
S        -13.81345        8.05672        0.74388
C        -14.44101        7.48557       -0.78262
O        -15.62992        7.37570       -1.01323
C        -14.79082        6.37598       -3.68367
C        -14.98924        5.38550       -4.57942
C        -14.14250        4.37830       -5.26009
C        -13.22870        3.53416       -4.72367
C        -12.58820        2.49697       -5.47313
N        -12.06798        1.65441       -6.07478
C        -12.88819        3.56789       -3.34451
N        -12.56893        3.62839       -2.23245
C        -14.67882        4.24944       -6.64458
C        -15.95821        4.80249       -6.67115
C        -16.26674        5.46477       -5.38683
O        -17.29725        6.00056       -5.09159
C        -16.78190        4.77638       -7.78681
C        -16.28053        4.16194       -8.95960
C        -14.96985        3.66599       -8.95595
C        -14.13825        3.72362       -7.81331
S        -14.54607        2.99393      -10.48688
C        -16.08457        3.32015      -11.13910
C        -16.90600        3.94959      -10.23425
H         -5.62655       -1.94744       -2.87071
H         -1.71687       -3.92665       -0.44803
H         -5.22426       -7.04736       -3.02442
H         -6.27300       -4.68995       -3.48294
H         -2.22843        1.61599        0.96119
H         -7.98523        5.23201       -0.12610
H         -6.77340        8.96782       -0.71914
H         -8.24642        8.82377        0.22708
H         -6.70018        6.34453       -2.56767
H         -8.13293        5.48323       -2.30326
H         -6.06734        8.22312       -3.03695
H         -6.79656        9.42233       -4.04339
H         -9.81780        7.44121       -0.18031
H        -15.64256        7.01705       -3.43596
H        -17.77540        5.21474       -7.75568
H        -13.12119        3.35464       -7.88742
H        -16.31348        3.04023      -12.15857
H        -17.92182        4.24472      -10.46764
