120

C         -2.89287        0.68914        5.18733
C         -3.11898       -0.09933        6.27213
C         -2.43156       -1.32884        6.48241
N         -1.86880       -2.33045        6.64679
C         -4.00214        0.29586        7.31121
N         -4.72738        0.64674        8.15063
C         -1.89003        0.45809        4.10477
C         -1.63684        1.68353        3.47797
C         -0.80957        1.84103        2.37328
C         -0.21617        0.67893        1.83582
C         -0.45555       -0.55495        2.45966
C         -1.28757       -0.68599        3.60302
S          0.36600       -1.83221        1.63753
C          0.99346       -0.77641        0.45683
C          0.61084        0.52555        0.67311
C         -2.45896        2.74724        4.06407
O         -2.30869        3.93813        3.89116
C         -3.45932        2.03177        4.92535
C         -4.71182        2.48258        5.11847
C         -5.18166        3.70278        4.54624
S         -5.92472        3.66620        3.00207
C         -6.18154        5.36828        2.97274
C         -5.72914        5.96032        4.14233
C         -5.13914        4.99451        5.04457
C         -4.52141        5.39795        6.35123
C         -3.71913        6.67335        6.19197
S         -4.77959        8.03447        5.75401
O         -3.93015        9.08280        5.21580
O         -5.62059        8.30553        6.90752
C         -5.82946        7.43117        4.42892
C         -6.74953        5.94681        1.78683
C         -8.10475        6.04881        1.70518
C         -8.71083        6.28057        0.39999
C        -10.01428        6.30606        0.00329
C        -11.25701        6.40586        0.88362
C        -11.67604        7.90487        1.01958
N        -12.85186        8.12788        1.87062
C        -12.45464        5.52989        0.44922
N        -12.16623        4.09516        0.46775
C         -9.93219        6.12824       -1.46000
C        -10.79968        5.65770       -2.37339
C        -10.38580        5.31942       -3.80092
C         -8.99957        5.80101       -4.17642
C         -8.12783        6.27464       -3.27239
C         -8.54666        6.29339       -1.89756
C         -7.82052        6.37279       -0.77860
C         -6.39897        6.50494       -0.60504
C         -5.90038        6.30766        0.62874
C        -11.39592        5.86257       -4.76120
C        -11.69913        5.28095       -5.93470
C        -12.68090        5.83290       -6.80227
S        -14.02346        6.66520       -6.15720
C        -14.58718        7.20901       -7.68213
C        -13.95001        6.47556       -8.67703
C        -12.81384        5.73184       -8.17505
C        -11.94973        4.94431       -9.11918
C        -12.80237        3.97259       -9.91290
S        -14.06884        4.80174      -10.87118
O        -15.30041        4.05456      -10.68724
O        -13.53065        4.99733      -12.20603
C        -14.28900        6.43929      -10.13722
C        -15.69329        8.11741       -7.74815
C        -15.98752        9.05500       -6.82663
C        -15.33931        9.50512       -5.58496
C        -14.07116        9.96096       -5.43596
C        -13.54384       10.38284       -4.18061
N        -13.11598       10.69251       -3.14628
C        -13.20381       10.13613       -6.55359
N        -12.50200       10.34229       -7.45390
C        -16.42478        9.66575       -4.58758
C        -17.63193        9.76966       -5.28682
C        -17.42221        9.48216       -6.72404
O        -18.25835        9.50166       -7.60132
C        -18.84732       10.02799       -4.66917
C        -18.85157       10.16772       -3.25988
C        -17.64941        9.99956       -2.55728
C        -16.42050        9.73126       -3.20195
S        -17.88336       10.16825       -0.85645
C        -19.54427       10.49180       -1.04247
C        -19.93329       10.45683       -2.36090
H         -0.67676        2.81646        1.91280
H         -1.47057       -1.67920        4.00776
H          1.61211       -1.15810       -0.34387
H          0.90144        1.34199        0.02233
H         -5.46132        1.87682        5.61819
H         -3.85475        4.61149        6.72235
H         -5.31904        5.52189        7.09287
H         -2.95550        6.58246        5.41225
H         -3.22786        6.94277        7.13220
H         -5.57062        8.01298        3.53852
H         -6.85980        7.67055        4.71399
H         -8.75207        5.76150        2.52692
H        -10.98508        6.07454        1.89544
H        -11.86804        8.34907        0.03600
H        -10.84777        8.47028        1.46683
H        -13.68647        7.75316        1.42122
H        -13.02498        9.12988        1.95916
H        -12.80456        5.83556       -0.53861
H        -13.31637        5.68976        1.10342
H        -11.18967        3.92939        0.22884
H        -12.72533        3.62391       -0.24060
H        -11.81316        5.37876       -2.13432
H        -10.38920        4.22251       -3.87284
H         -8.70018        5.71910       -5.21745
H         -7.13175        6.59178       -3.55348
H         -5.76706        6.76083       -1.44674
H         -4.83107        6.39664        0.79912
H        -11.88239        6.78260       -4.44563
H        -11.16554        4.38841       -6.25003
H        -11.17600        4.38712       -8.58073
H        -11.43065        5.63729       -9.79277
H        -13.31088        3.26893       -9.24409
H        -12.18762        3.39711      -10.61240
H        -15.32459        6.73081      -10.33117
H        -13.61862        7.11090      -10.68195
H        -16.41978        7.92293       -8.53771
H        -19.76045       10.11077       -5.25161
H        -15.52735        9.58969       -2.60357
H        -20.15914       10.68836       -0.17481
H        -20.95467       10.63302       -2.67606
