122

C        -19.86877        5.50533       -5.36294
C        -20.45829        5.26055       -4.17426
C        -21.83683        5.53576       -3.92765
N        -22.95748        5.74811       -3.73512
C        -19.76339        4.62386       -3.10534
N        -19.16591        4.10572       -2.24899
C        -20.51369        6.02024       -6.61069
C        -19.70867        5.65499       -7.69530
C        -19.96420        6.02313       -9.00870
C        -21.10564        6.81903       -9.25626
C        -21.92942        7.17547       -8.17807
C        -21.64805        6.79153       -6.83930
S        -23.27400        8.12038       -8.71323
C        -22.75379        8.08921      -10.33590
C        -21.58747        7.37832      -10.48804
C        -18.52269        4.91198       -7.23068
O        -17.78013        4.22114       -7.89333
C        -18.49267        5.12551       -5.75221
C        -17.35598        5.22880       -5.04086
C        -15.92922        5.10944       -5.55181
C        -15.47959        6.52190       -5.96978
O        -15.89037        7.14421       -6.94111
O        -14.59936        7.07239       -5.03614
C        -14.30349        6.03908       -4.16663
C        -14.95655        4.84458       -4.45795
C        -14.67054        3.68527       -3.75486
C        -13.73778        3.80298       -2.73281
C        -13.11389        5.00719       -2.41549
C        -13.40598        6.16637       -3.12018
C        -12.11829        4.76202       -1.32702
C        -12.46602        3.28226       -1.00552
O        -12.03847        2.63560       -0.05616
O        -13.35447        2.74186       -1.93670
C        -10.64762        4.87100       -1.73554
C        -10.24751        5.27403       -2.97068
C         -9.01457        4.73187       -3.50557
C         -8.61625        4.65134       -4.80437
C         -8.95089        5.51514       -6.02181
C        -10.46363        5.52696       -6.36039
N        -10.83464        6.31189       -7.54048
C         -8.37475        6.96044       -5.80462
N         -8.62489        7.91613       -6.89674
C         -7.92299        3.35076       -4.81580
C         -7.93895        2.38573       -5.75213
C         -7.49723        0.95001       -5.44355
C         -6.87871        0.76341       -4.06008
C         -6.89956        1.72351       -3.11888
C         -7.58873        2.93776       -3.45268
C         -8.27780        3.76737       -2.66310
C         -8.49547        3.76633       -1.23996
C         -9.63739        4.33036       -0.79798
C         -6.54048        0.49358       -6.50802
C         -6.91570       -0.16064       -7.62124
C         -5.95495       -0.52369       -8.71098
C         -5.93149       -2.02945       -9.01149
O         -5.75781       -2.92295       -8.19293
O         -6.10486       -2.27188      -10.37652
C         -6.32032       -1.02924      -10.94588
C         -6.31937        0.02442      -10.03753
C         -6.56368        1.32846      -10.43854
C         -6.76585        1.51659      -11.79297
C         -6.66151        0.47869      -12.71399
C         -6.48722       -0.83455      -12.30523
C         -6.75091        1.06638      -14.07127
C         -7.10317        2.52034      -13.72551
O         -7.32606        3.40911      -14.53834
O         -7.05154        2.74858      -12.35324
C         -5.49267        0.85232      -14.89461
C         -4.59001        1.70997      -15.41709
C         -4.45965        3.16469      -15.37621
C         -4.29578        3.94332      -14.28210
C         -4.19354        5.36193      -14.33914
N         -4.13404        6.52098      -14.38371
C         -4.06540        3.36372      -13.00216
N         -3.81541        2.88190      -11.97355
C         -3.98477        3.58142      -16.72086
C         -3.39931        2.47243      -17.30595
C         -3.69548        1.23741      -16.53278
O         -3.35151        0.10779      -16.78540
C         -2.64694        2.53020      -18.48085
C         -2.50621        3.80157      -19.09401
C         -3.18611        4.89873      -18.54574
C         -3.96018        4.80534      -17.36672
S         -2.92111        6.33078      -19.47156
C         -1.85752        5.53422      -20.53527
C         -1.73451        4.19734      -20.23829
H        -19.28572        5.73882       -9.80770
H        -22.30695        7.13178       -6.04724
H        -23.32329        8.59516      -11.10435
H        -21.09294        7.25574      -11.44459
H        -17.41824        5.55632       -4.00414
H        -15.78238        4.41145       -6.37920
H        -15.13803        2.73515       -3.99018
H        -12.91529        7.10890       -2.90467
H        -12.35352        5.37637       -0.45282
H        -10.96303        5.63518       -3.68267
H         -8.42101        5.10089       -6.89188
H        -11.02869        5.96835       -5.54370
H        -10.81885        4.50202       -6.50261
H        -10.38602        7.23704       -7.42921
H        -11.83504        6.50812       -7.51318
H         -7.28845        6.90325       -5.65944
H         -8.79720        7.39847       -4.89349
H         -8.20779        7.56162       -7.76050
H         -8.15616        8.80106       -6.69940
H         -8.41908        2.55519       -6.71086
H         -8.39443        0.31276       -5.46588
H         -6.45123       -0.20722       -3.81955
H         -6.49781        1.57122       -2.12412
H         -7.75624        3.34430       -0.57081
H         -9.84664        4.37756        0.26714
H         -5.49596        0.76106       -6.35894
H         -7.96544       -0.40717       -7.77530
H         -4.92674       -0.22386       -8.47398
H         -6.56064        2.16026       -9.74311
H         -6.45568       -1.66363      -13.00225
H         -7.61670        0.64411      -14.59438
H         -5.37778       -0.19135      -15.19197
H         -2.16735        1.64637      -18.89256
H         -4.47100        5.68624      -16.98823
H         -1.37668        6.08436      -21.33243
H         -1.10479        3.52509      -20.80928
