108

C        -10.67460       -5.17458        4.67064
C         -9.93017       -5.93190        3.82858
C         -9.48654       -7.24616        4.15149
N         -9.11461       -8.31465        4.40920
C         -9.56153       -5.49117        2.52525
N         -9.25315       -5.12153        1.46923
C        -11.20292       -5.59098        6.00998
C        -12.16857       -4.66459        6.40850
C        -12.82739       -4.68694        7.63130
C        -12.51741       -5.73631        8.51923
C        -11.57917       -6.69815        8.12140
C        -10.90042       -6.63783        6.87443
S        -11.38471       -7.91065        9.33537
C        -12.49993       -7.15613       10.37978
C        -13.01460       -6.00307        9.83796
C        -12.35656       -3.63290        5.38790
O        -13.26583       -2.83092        5.37820
C        -11.24133       -3.82765        4.40157
C        -10.79319       -2.82822        3.62016
C        -11.34574       -1.49296        3.52023
C        -12.58143       -1.26132        3.01760
C        -12.86781        0.15463        3.01475
C        -14.06436        0.72505        2.51997
N        -15.04019        1.19224        2.09942
C        -11.81921        0.82387        3.51868
C        -10.79243       -0.15799        3.89161
C         -9.62644        0.13097        4.51262
C         -9.13671        1.45163        4.97386
C         -8.02475        1.22054        5.70306
C         -7.71237       -0.18898        5.68502
C         -8.62072       -0.84112        4.94565
C         -6.60089       -0.75221        6.34814
N         -5.69519       -1.21108        6.91250
C         -9.60399        2.79465        4.75332
C         -8.87159        3.71508        4.10636
C         -9.36640        5.02503        3.92384
N         -8.90106        5.73135        2.83539
C         -9.54679        6.93517        2.81179
C         -9.67895        8.12258        2.05533
C        -10.63698        8.86761        2.72724
N        -11.00960        8.20189        3.87249
C        -10.36689        7.00081        3.88617
C        -10.27281        5.80295        4.62506
C        -11.25197       10.09555        2.38564
C        -12.49989       10.40239        2.77352
C        -13.21942       11.52538        2.23659
C        -13.60928       12.54935        3.02683
C        -14.20986       13.58657        2.21502
C        -14.68290       14.82039        2.72449
N        -15.07780       15.82238        3.14069
C        -14.20339       13.21251        0.92856
C        -13.63345       11.86320        0.84791
C        -13.53137       11.10151       -0.26833
C        -13.92070       11.44811       -1.66053
C        -13.48214       10.43216       -2.44020
C        -12.86715        9.40716       -1.63004
C        -12.94245        9.76285       -0.34148
C        -12.35257        8.18830       -2.13081
N        -11.91947        7.19554       -2.54723
C        -14.80001       12.47747       -2.16667
C        -14.76436       12.98815       -3.40772
C        -15.67767       14.02711       -3.82705
C        -15.76256       14.60236       -5.03354
C        -15.05711       14.42127       -6.30591
C        -14.79578       13.24761       -6.93234
C        -14.11235       13.16518       -8.17887
N        -13.52358       13.09783       -9.17655
C        -15.30870       12.00961       -6.44260
N        -15.75493       11.00412       -6.07394
C        -15.04695       15.75608       -6.97144
C        -15.99605       16.56007       -6.32828
C        -16.51769       15.89144       -5.12604
O        -17.34171       16.33363       -4.35370
C        -16.38336       17.81316       -6.77887
C        -15.79444       18.28237       -7.97295
C        -14.79331       17.51308       -8.58348
C        -14.37578       16.25736       -8.07750
S        -14.19578       18.28479      -10.00687
C        -15.30080       19.57295       -9.86358
C        -16.07022       19.46942       -8.72964
H        -13.54136       -3.91049        7.89196
H        -10.16537       -7.40272        6.65392
H        -12.72537       -7.59003       11.34449
H        -13.73061       -5.37562       10.35587
H         -9.90677       -2.94923        3.00372
H        -13.28996       -2.00792        2.68663
H        -11.76558        1.89398        3.61543
H         -7.42100        1.96897        6.19830
H         -8.60030       -1.89447        4.73336
H        -10.58838        3.03313        5.14658
H         -7.89398        3.45927        3.70284
H         -8.24078        5.43575        2.12714
H         -9.19060        8.37705        1.12425
H        -11.66911        8.48586        4.58463
H        -10.80172        5.53910        5.52973
H        -10.74041       10.72473        1.65844
H        -13.06715        9.78423        3.46337
H        -13.45129       12.63311        4.09332
H        -14.54884       13.82539        0.11589
H        -13.66110       10.30563       -3.49892
H        -12.62782        9.13560        0.47308
H        -15.56229       12.82251       -1.47287
H        -14.00853       12.64536       -4.10632
H        -16.30624       14.43361       -3.03038
H        -17.14358       18.38340       -6.25234
H        -13.59078       15.71664       -8.59389
H        -15.33057       20.35091      -10.61390
H        -16.82483       20.19871       -8.46000
