101

C         -9.08620       -1.91815       -3.59266
C         -9.36329       -3.11889       -3.03755
C         -9.19162       -4.34888       -3.73392
N         -9.05696       -5.35270       -4.30151
C         -9.78642       -3.25156       -1.68279
N        -10.13922       -3.33526       -0.58055
C         -8.51573       -1.67098       -4.95289
C         -7.95202       -0.39224       -4.96702
C         -7.39461        0.20400       -6.09071
C         -7.42117       -0.52801       -7.29763
C         -7.97607       -1.81599       -7.29428
C         -8.52844       -2.41026       -6.12917
S         -7.90525       -2.52553       -8.86709
C         -7.18555       -1.13896       -9.54697
C         -6.98243       -0.15275       -8.61163
C         -8.14469        0.27079       -3.67142
O         -7.61245        1.30087       -3.31819
C         -9.11767       -0.59674       -2.92512
C         -9.97616       -0.11811       -2.00669
C        -10.08075        1.25636       -1.55938
C        -10.32883        2.27062       -2.42226
C        -10.37092        3.53139       -1.71850
C        -10.52422        4.78801       -2.35744
N        -10.64968        5.80654       -2.89708
C        -10.19564        3.31683       -0.40580
C        -10.05696        1.86891       -0.19834
C         -9.93842        1.23898        0.99410
C         -9.96922        1.80488        2.37023
C         -9.85848        0.74930        3.20798
C         -9.68448       -0.47218        2.46396
C         -9.72819       -0.20104        1.15959
C         -9.47045       -1.73142        3.06812
N         -9.28469       -2.74741        3.60060
C        -10.22144        3.13293        2.88501
C         -9.75256        3.57009        4.06815
C        -10.06327        4.88721        4.59172
N        -10.17136        5.95291        3.76724
N        -10.53280        7.25654        4.22081
C        -10.88451        7.55535        5.50022
C        -10.79740        6.47956        6.42411
C        -10.34011        5.11329        5.95944
N        -10.26864        4.21633        6.96240
S        -10.77561        4.98648        8.33723
N        -11.09662        6.49509        7.73792
C        -11.23108        8.93551        5.85140
C        -10.91687        9.48005        7.05119
C        -11.08954       10.91731        7.01200
C        -10.90191       11.76451        8.12663
N        -10.75360       12.45670        9.04831
C        -11.45341       11.29589        5.77709
C        -11.63236       10.07935        4.98370
C        -12.11184       10.04184        3.72430
C        -12.16581       11.12901        2.71903
C        -12.62776       10.54287        1.58652
C        -12.98582        9.16413        1.83256
C        -12.71055        8.86150        3.10621
C        -13.54993        8.29359        0.87352
N        -14.01205        7.56545        0.09543
C        -11.59562       12.46767        2.71200
C        -12.08229       13.45168        1.93973
C        -11.54839       14.78981        1.83807
C        -12.20435       15.89721        1.45268
C        -13.60137       16.19086        1.08996
C        -14.40534       15.49615        0.24780
C        -15.73857       15.88630       -0.06225
N        -16.83470       16.17997       -0.30083
C        -13.93664       14.38480       -0.51113
N        -13.55635       13.48606       -1.13757
C        -13.84831       17.61509        1.47603
C        -12.60438       18.22576        1.66128
C        -11.52589       17.22159        1.65401
O        -10.34453       17.43736        1.82540
C        -12.43361       19.59522        1.81761
C        -13.59016       20.40734        1.78876
C        -14.84601       19.78996        1.70232
C        -15.00046       18.38616        1.57756
S        -16.11765       20.95758        1.73624
C        -15.02275       22.26242        1.76996
C        -13.71629       21.83721        1.81555
H         -7.00101        1.21588       -6.04710
H         -8.97618       -3.39478       -6.20754
H         -6.94634       -1.10869      -10.60147
H         -6.54306        0.80798       -8.85442
H        -10.74791       -0.75615       -1.58299
H        -10.44460        2.19087       -3.49450
H        -10.12645        4.09325        0.33464
H         -9.90591        0.76909        4.28766
H         -9.58959       -0.93406        0.38569
H        -10.86608        3.77725        2.29311
H         -9.15062        2.93796        4.71492
H        -10.47838        8.97674        7.90192
H        -11.69713       12.30270        5.47767
H        -12.68945       10.98704        0.60150
H        -12.94898        7.93058        3.59511
H        -10.74899       12.65291        3.36663
H        -12.94253       13.20822        1.33764
H        -10.50697       14.89440        2.15497
H        -11.44016       20.02432        1.91324
H        -16.00133       17.97311        1.51609
H        -15.38708       23.28096        1.76113
H        -12.87601       22.52075        1.84661
