108

C         -6.38075        1.87644       -8.92275
C         -5.23213        1.20614       -9.17386
C         -4.85805        0.79284      -10.48195
N         -4.55469        0.45027      -11.55303
C         -4.27661        0.93820       -8.15420
N         -3.51163        0.69634       -7.32290
C         -7.38232        2.35749       -9.92059
C         -8.13699        3.37104       -9.32303
C         -9.20554        4.01530       -9.93005
C         -9.54035        3.62326      -11.24261
C         -8.77921        2.62304      -11.86430
C         -7.69847        1.96644      -11.21668
S         -9.34370        2.32578      -13.46968
C        -10.58611        3.48389      -13.33272
C        -10.59499        4.08704      -12.09831
C         -7.69309        3.60222       -7.94482
O         -7.96627        4.57042       -7.26866
C         -6.80386        2.43822       -7.62386
C         -6.68179        1.91826       -6.39030
C         -7.36345        2.46620       -5.27082
S         -6.56985        3.59100       -4.25784
C         -7.98452        3.88618       -3.26481
C         -8.98673        3.01722       -3.65880
C         -8.62782        2.21308       -4.79042
N         -9.47567        1.30093       -5.33460
C        -10.65432        1.26755       -4.65335
N        -11.07227        1.99194       -3.57218
C        -10.23517        2.92376       -3.04617
C         -7.89889        4.83567       -2.18017
C         -7.16376        5.96286       -2.37833
C         -6.75232        6.75614       -1.24070
C         -5.82955        7.74862       -1.14599
C         -5.13019        8.58010       -2.20856
C         -3.81650        7.93183       -2.70713
N         -3.96545        6.60433       -3.30377
C         -6.08833        9.00080       -3.36172
N         -5.48374        9.85251       -4.39095
C         -5.51034        7.77262        0.28581
C         -4.40768        8.18092        0.93093
C         -4.17346        7.82479        2.40025
C         -5.38650        7.23619        3.11065
C         -6.48197        6.82804        2.45330
C         -6.47102        6.96449        1.02708
C         -7.19199        6.33213        0.10018
C         -8.18700        5.31223        0.24781
C         -8.49674        4.59241       -0.84293
C         -3.68672        9.03092        3.13094
C         -2.84540        8.99894        4.17468
C         -2.37687       10.19245        4.79017
S         -1.49850       10.05485        6.26018
C         -1.16021       11.75409        6.37381
C         -1.85061       12.41604        5.37567
C         -2.49466       11.52720        4.45604
N         -3.16457       11.98713        3.36788
C         -3.15533       13.33753        3.29838
N         -2.59468       14.24842        4.14730
C         -1.89930       13.80240        5.23224
C         -0.37765       12.25044        7.46246
C          0.71897       11.65316        7.95826
C          1.48228       10.45149        7.60453
C          1.94650       10.08425        6.38529
C          2.68994        8.89824        6.15562
N          3.27359        7.90932        5.97295
C          1.78996       10.91604        5.23079
N          1.72859       11.58282        4.28532
C          1.95853        9.86595        8.88671
C          1.85951       10.85701        9.87057
C          1.14289       12.03586        9.34586
O          0.89341       13.06091        9.94390
C          2.35144       10.70474       11.15924
C          2.98561        9.48090       11.47776
C          3.02255        8.46433       10.51270
C          2.48483        8.62492        9.21553
S          3.81049        7.05256       11.11257
C          4.14995        7.78918       12.60903
C          3.64413        9.06558       12.68354
H         -9.77240        4.77340       -9.39575
H         -7.17521        1.17625      -11.74356
H        -11.25659        3.66792      -14.16153
H        -11.31904        4.84148      -11.81435
H         -6.14030        0.99662       -6.20501
H        -11.38818        0.55767       -5.02625
H        -10.61411        3.49963       -2.21591
H         -6.68950        6.17120       -3.33059
H         -4.84138        9.52678       -1.72663
H         -3.11480        7.85061       -1.86916
H         -3.33350        8.58874       -3.43959
H         -4.37270        5.97150       -2.61611
H         -3.04323        6.22983       -3.51892
H         -6.94221        9.54433       -2.93673
H         -6.49893        8.13363       -3.87901
H         -5.23770       10.75995       -4.00556
H         -6.17366       10.01884       -5.12410
H         -3.60217        8.67882        0.40227
H         -3.38705        7.05705        2.41756
H         -5.33540        7.10419        4.18714
H         -7.32754        6.37901        2.96061
H         -8.63239        5.10776        1.21244
H         -9.19848        3.77989       -0.71778
H         -4.05615        9.97152        2.73872
H         -2.52077        8.03611        4.57154
H         -3.67197       13.75440        2.43610
H         -1.45768       14.54710        5.87856
H         -0.77668       13.12571        7.97696
H          2.26917       11.50938       11.88394
H          2.52968        7.79455        8.52068
H          4.69984        7.24860       13.36704
H          3.75327        9.69046       13.56149
