87

C        -10.17708        8.36417       -4.80104
C        -10.98652        9.42316       -4.55393
C        -11.64450       10.13766       -5.61418
N        -12.19765       10.75315       -6.42239
C        -11.25652        9.94039       -3.23114
N        -11.48275       10.36642       -2.17904
C         -9.85857        7.81160       -6.17139
C         -8.99648        6.75317       -6.04481
C         -8.51265        5.96541       -7.09755
C         -8.95163        6.29800       -8.36715
C         -9.82727        7.36622       -8.53456
C        -10.29839        8.14099       -7.46544
S        -10.20007        7.52562      -10.15440
C         -9.23718        6.23196      -10.66042
C         -8.61497        5.65025       -9.55828
C         -8.74228        6.51263       -4.69597
O         -8.25957        5.44940       -4.38852
C         -9.42028        7.49430       -3.81698
C         -9.39818        7.48802       -2.43594
C         -8.52653        6.56118       -1.61352
C         -7.26541        6.04075       -2.01466
N         -6.68164        5.24780       -1.11143
C         -7.55469        5.22833       -0.14204
C         -8.70607        6.00669       -0.34334
C         -9.48420        5.84509        0.80749
S        -10.73219        6.50093        1.03375
C         -8.77563        4.95221        1.67155
C         -7.58663        4.61250        1.02303
N         -6.76662        3.79811        1.67521
C         -7.43278        3.58258        2.82830
C         -8.67525        4.26634        2.86928
C         -9.62077        4.23472        3.98790
C        -10.99821        4.37838        3.80799
C        -11.84947        4.36041        4.91190
C        -11.34002        4.15748        6.21032
C         -9.97286        4.01931        6.34401
C         -9.15395        4.05732        5.28528
N         -7.86103        3.96395        5.62134
Se        -7.56408        3.72361        7.35788
N         -9.33427        3.84203        7.51107
C        -12.22249        4.22674        7.37408
C        -11.89368        4.65397        8.67507
N        -13.00143        4.92852        9.40136
C        -13.97356        4.57313        8.57150
C        -13.56873        4.01007        7.39133
C        -14.69598        3.48938        6.73833
S        -14.65931        2.65270        5.58215
C        -15.83923        3.91507        7.45846
C        -15.28546        4.72599        8.48300
N        -16.14097        5.46943        9.13738
C        -17.31234        5.07979        8.61326
C        -17.22915        3.96770        7.77077
C        -18.58788        3.34394        7.47413
C        -19.25694        2.33108        8.20809
C        -18.88577        1.29450        9.32035
C        -17.68692        0.77427        9.71443
C        -17.45672       -0.19905       10.77227
N        -17.21608       -0.97589       11.59053
C        -16.65125        0.86234        8.78650
N        -15.82352        0.96529        7.99821
C        -20.15900        0.61661        9.72570
C        -21.22214        1.10742        8.98084
C        -20.73484        2.14808        8.06369
O        -21.45866        2.78735        7.31555
C        -22.53043        0.58643        9.12949
C        -22.71388       -0.48438       10.03035
C        -21.63242       -1.00122       10.72016
C        -20.35891       -0.48594       10.59028
S        -22.10493       -2.28250       11.69276
C        -23.73233       -2.18476       11.26775
C        -23.90952       -1.15047       10.34291
H         -7.84273        5.12255       -6.91961
H        -10.98584        8.92853       -7.67283
H         -9.12740        5.91174      -11.68411
H         -7.94960        4.79608       -9.62715
H        -10.02681        8.17276       -1.88045
H         -6.72426        6.17130       -2.90659
H         -7.04149        2.93711        3.59527
H        -11.44192        4.48544        2.83694
H        -12.89321        4.52889        4.72147
H        -10.91071        4.85481        9.03915
H        -18.22607        5.57404        8.83945
H        -19.24313        3.96315        6.85098
H        -23.36119        0.98142        8.56281
H        -19.60392       -0.98126       11.15209
H        -24.50911       -2.82896       11.65909
H        -24.87324       -0.89972        9.92557
