89

C        -11.23025       -2.56853       -0.72704
C        -12.01650       -3.01578       -1.73976
C        -12.83328       -4.17277       -1.64087
N        -13.51132       -5.12132       -1.57708
C        -12.11207       -2.35409       -2.99351
N        -12.17941       -1.81374       -4.02314
C        -11.11621       -3.20605        0.63118
C        -10.32459       -2.38764        1.42940
C        -10.04087       -2.62827        2.76491
C        -10.56952       -3.78342        3.36624
C        -11.31673       -4.65798        2.57030
C        -11.59774       -4.38817        1.19862
S        -11.79847       -6.04642        3.47876
C        -11.06254       -5.47071        4.90676
C        -10.45304       -4.25425        4.71575
C         -9.78250       -1.26190        0.67437
O         -8.96700       -0.47741        1.11685
C        -10.38277       -1.33387       -0.70545
C        -10.09731       -0.40051       -1.63944
C         -9.26414        0.75764       -1.45459
C         -7.96656        1.03280       -2.13063
N         -7.25981        2.02594       -1.66470
C         -8.03196        2.48800       -0.64532
C         -9.29670        1.79190       -0.61151
C        -10.13196        2.36162        0.48937
S        -11.77502        2.25663        0.70389
C         -9.12642        3.17176        1.24208
C         -7.92563        3.26837        0.42709
N         -6.98453        4.02964        1.04506
C         -7.55192        4.32533        2.18110
C         -8.91502        3.78081        2.40600
C         -9.69038        3.89600        3.57885
S        -10.64554        5.33050        3.77706
C        -11.04792        4.89956        5.41609
C        -11.72565        5.53904        6.50015
C        -11.76966        4.73271        7.62162
C        -12.32159        5.10252        8.91962
O        -12.46598        6.24844        9.31949
O        -12.72208        4.03263        9.65437
S        -11.06005        3.19297        7.35852
C        -10.58491        3.65863        5.73437
C         -9.82203        3.05443        4.67589
C         -9.31870        1.74467        4.84527
C        -10.15710        0.52068        4.76236
N         -9.64723       -0.57532        5.24721
C         -8.42092       -0.17694        5.66706
C         -8.21905        1.23216        5.40268
C         -6.89481        1.63369        5.96805
S         -6.15357        3.11603        5.89972
C         -6.41654        0.35591        6.59517
C         -7.38901       -0.68026        6.33391
N         -7.00548       -1.85673        6.89265
C         -5.86478       -1.55650        7.45068
C         -5.41436       -0.14252        7.31710
C         -4.20837        0.43065        7.82794
C         -4.09907        1.46523        8.67584
C         -5.08450        2.26860        9.41045
C         -6.13828        1.79303       10.11671
C         -7.05071        2.61942       10.82352
N         -7.82983        3.28596       11.37339
C         -6.30733        0.39669       10.32104
N         -6.38894       -0.74945       10.51823
C         -4.48197        3.61673        9.60315
C         -3.10928        3.50707        9.34997
C         -2.78631        2.17757        8.79268
O         -1.69314        1.77297        8.45873
C         -2.19806        4.51989        9.61706
C         -2.69708        5.71487       10.18588
C         -4.08151        5.85556       10.36163
C         -5.00041        4.82451       10.04798
S         -4.47459        7.40094       11.02181
C         -2.83551        7.83965       11.16734
C         -1.99647        6.87131       10.66866
H         -9.40936       -1.94874        3.32174
H        -12.16719       -5.12803        0.64991
H        -11.10424       -6.04874        5.82035
H         -9.92865       -3.71921        5.50167
H        -10.46239       -0.47421       -2.65684
H         -7.65493        0.40282       -2.97795
H         -7.08141        4.94805        2.95626
H        -12.14547        6.53849        6.46615
H        -12.57965        3.18695        9.18940
H        -11.16173        0.58657        4.31693
H         -5.25065       -2.27073        8.02253
H         -3.29886        0.01202        7.39250
H         -1.13649        4.37639        9.43594
H         -6.05905        4.99500       10.21200
H         -2.56321        8.78994       11.60620
H         -0.91759        6.97159       10.66929
