94

C         -9.53065        9.31181       -2.78860
C         -8.89027       10.41518       -3.25337
C         -9.53268       11.43435       -4.01497
N        -10.03431       12.27133       -4.64039
C         -7.49970       10.64895       -3.05516
N         -6.36457       10.83428       -2.89801
C        -10.97829        8.97435       -3.01376
C        -11.22727        7.70445       -2.49291
C        -12.46118        7.06265       -2.52157
C        -13.53327        7.73323       -3.14218
C        -13.30412        9.00522       -3.68073
C        -12.03737        9.64711       -3.61737
S        -14.73823        9.63803       -4.40546
C        -15.64467        8.24998       -4.01087
C        -14.89254        7.31821       -3.33661
C        -10.01293        7.11835       -1.93131
O         -9.92866        5.97956       -1.51859
C         -8.94221        8.17129       -2.02934
C         -7.72795        7.98626       -1.47983
C         -7.27240        6.82289       -0.77794
C         -6.11252        5.97778       -1.16805
N         -5.85966        4.94221       -0.41913
C         -6.83055        5.01633        0.52776
C         -7.66147        6.18088        0.32379
C         -8.68275        6.25362        1.41674
S         -9.77785        7.46508        1.73299
C         -8.38238        5.00796        2.19300
C         -7.24633        4.33975        1.59040
N         -6.90939        3.22016        2.28679
C         -7.78314        3.20982        3.25489
C         -8.75911        4.31395        3.25913
C         -9.77538        4.52831        4.19244
O        -10.94657        5.19912        3.88381
C        -11.68676        5.16572        5.01789
C        -10.95891        4.49529        5.98366
N         -9.76453        4.09306        5.44904
C        -11.51597        4.31899        7.25449
C        -12.81150        4.78851        7.49688
C        -13.49059        5.43609        6.47997
C        -12.95820        5.66844        5.22457
O        -14.73127        5.74132        6.93098
C        -14.77211        5.25362        8.22568
N        -13.61750        4.71187        8.60148
C        -15.96270        5.33189        8.99334
C        -15.92512        5.36958       10.33077
C        -17.08221        5.48680       11.15749
C        -17.43913        4.60098       12.29351
N        -18.45880        4.96503       13.02008
C        -18.84913        6.12680       12.43368
C        -18.05867        6.38883       11.25587
C        -18.55446        7.64003       10.61232
S        -18.23627        8.18296        9.07635
C        -19.49631        8.17544       11.65429
C        -19.66467        7.15038       12.66771
N        -20.54777        7.55261       13.61499
C        -20.85127        8.76063       13.23400
C        -20.19609        9.26217       11.98946
C        -20.40423       10.56159       11.41257
C        -19.49854       11.35823       10.81911
C        -18.06697       11.18664       10.56340
C        -17.11682       10.80548       11.44278
C        -15.75481       10.61893       11.07815
N        -14.65427       10.41253       10.77266
C        -17.41857       10.62219       12.81978
N        -17.68368       10.50029       13.94705
C        -17.80512       11.82045        9.24659
C        -18.84209       12.72144        8.98916
C        -19.94115       12.51510        9.96365
O        -20.99546       13.10887       10.01372
C        -18.80702       13.62760        7.93699
C        -17.67092       13.60151        7.08748
C        -16.70596       12.60132        7.27591
C        -16.76789       11.67661        8.33869
S        -15.46564       12.68127        6.08135
C        -16.10853       14.10697        5.41026
C        -17.28928       14.47506        6.01255
H        -12.58295        6.07416       -2.08702
H        -11.95088       10.63436       -4.05320
H        -16.68722        8.18010       -4.29027
H        -15.29220        6.36909       -2.99921
H         -6.94420        8.73114       -1.55298
H         -5.52322        6.25068       -2.05629
H         -7.83028        2.43712        4.03780
H        -10.96389        3.79970        8.02989
H        -13.51074        6.18157        4.44780
H        -16.89594        5.36873        8.44357
H        -14.96742        5.33054       10.85233
H        -16.85624        3.68193       12.45954
H        -21.54913        9.41451       13.77939
H        -21.44496       10.89335       11.42928
H        -19.60665       14.34825        7.79301
H        -16.00491       10.91144        8.42954
H        -15.59328       14.60169        4.59857
H        -17.85007       15.35193        5.71327
