102

C         -6.45901       -2.32299       -3.40206
C         -5.55861       -3.15692       -3.98029
C         -4.74394       -2.74383       -5.07374
N         -4.10134       -2.40331       -5.98199
C         -5.45023       -4.52469       -3.61103
N         -5.36327       -5.65087       -3.29744
C         -6.74814       -0.91657       -3.82174
C         -8.06134       -0.62936       -3.44590
C         -8.66452        0.61137       -3.60679
C         -7.86206        1.67147       -4.07747
C         -6.53069        1.40715       -4.43118
C         -5.96133        0.10438       -4.35456
S         -5.72399        2.86419       -4.89766
C         -7.09519        3.82619       -4.57350
C         -8.17947        3.06564       -4.20905
C         -8.64678       -1.74640       -2.69189
O         -9.80911       -1.81321       -2.34381
C         -7.51840       -2.70313       -2.43360
C         -7.47757       -3.55219       -1.38671
C         -8.56107       -3.74925       -0.47054
S         -9.69518       -4.99217       -0.87639
C        -10.65237       -4.69508        0.49801
C        -10.11577       -3.71931        1.29727
C         -8.90424       -3.18275        0.75716
S         -8.12936       -1.90825        1.69781
C         -6.68258       -1.66031        0.80206
C         -5.60421       -2.42457        1.06754
C         -4.32670       -2.00010        0.56063
C         -3.08922       -2.46201        0.86034
C         -2.63520       -3.76073        1.52638
C         -2.57559       -3.70914        3.07414
N         -3.86674       -3.60691        3.75563
C         -3.40396       -5.02612        1.00588
N         -3.01265       -6.30368        1.62336
C         -2.22379       -1.37068        0.39402
C         -1.04791       -0.92889        0.86750
C         -0.45564        0.39786        0.41289
C         -1.10961        0.98790       -0.82935
C         -2.33982        0.61018       -1.22001
C         -2.97302       -0.45450       -0.47484
C         -4.25465       -0.78430       -0.29138
C         -5.47484       -0.14836       -0.72916
C         -6.63159       -0.56280       -0.17441
C          1.03664        0.31619        0.32131
C          1.79433       -0.48113       -0.45246
C          3.23153       -0.48315       -0.36102
S          4.06909        0.58527        0.72762
C          5.59579       -0.01791        0.31601
C          5.51865       -0.99396       -0.64585
C          4.17087       -1.26150       -1.03330
S          3.81648       -2.48419       -2.25963
C          3.55215       -3.81638       -1.19197
C          3.21631       -5.06660       -1.53988
C          2.96795       -5.80987       -2.79112
C          3.61541       -5.70269       -3.97637
C          3.29568       -6.49576       -5.11573
N          3.03589       -7.12934       -6.05379
C          4.75486       -4.85811       -4.18100
N          5.69798       -4.23504       -4.39109
C          2.00180       -6.90415       -2.43531
C          1.89526       -6.96778       -1.04276
C          2.68066       -5.90091       -0.41317
O          2.79780       -5.71253        0.78004
C          1.09702       -7.87596       -0.35529
C          0.33537       -8.78670       -1.11860
C          0.42742       -8.73242       -2.51535
C          1.25591       -7.79988       -3.19317
S         -0.58841       -9.91726       -3.25351
C         -1.15462      -10.48117       -1.74930
C         -0.58522       -9.80420       -0.69727
H         -9.68857        0.77594       -3.28289
H         -4.91812       -0.03013       -4.62422
H         -7.05130        4.90328       -4.67247
H         -9.15125        3.49010       -3.98310
H         -6.57997       -4.12470       -1.16553
H        -11.56326       -5.25397        0.65801
H        -10.58425       -3.39773        2.22373
H         -5.65445       -3.22557        1.79028
H         -1.59795       -3.91605        1.19253
H         -1.94655       -2.87187        3.38995
H         -2.05557       -4.60321        3.44496
H         -3.74153       -3.71110        4.76288
H         -4.50882       -4.34055        3.46410
H         -3.22992       -5.13832       -0.07010
H         -4.48337       -4.91511        1.13117
H         -2.88489       -6.20885        2.62861
H         -3.77666       -6.97405        1.51504
H         -0.55771       -1.42331        1.70066
H         -0.65696        1.12233        1.21964
H         -0.58919        1.78777       -1.35372
H         -2.84892        1.06400       -2.06413
H         -5.44548        0.64862       -1.46169
H         -7.57800       -0.13025       -0.48885
H          1.50870        0.97598        1.05195
H          1.31346       -1.16633       -1.14459
H          6.47507        0.38125        0.80072
H          6.39431       -1.49250       -1.04142
H          3.56677       -3.57583       -0.12788
H          1.04316       -7.86073        0.72996
H          1.25704       -7.81323       -4.27628
H         -1.88108      -11.28113       -1.70631
H         -0.82363      -10.01697        0.33804
