108

C         11.61198       -6.21557       -2.84446
C         11.35714       -6.46018       -4.20798
C         10.09699       -6.20231       -4.76446
C          9.11733       -5.69655       -3.92875
C          9.36253       -5.49665       -2.57542
C         10.60112       -5.74180       -2.00741
C          8.15966       -5.01007       -1.89941
O          8.04105       -4.98366       -0.69587
C          7.17983       -4.71828       -2.98630
C          7.75332       -5.25593       -4.25929
O          7.22733       -5.29752       -5.35189
C          6.01684       -4.04836       -3.00265
C          5.41707       -3.35504       -1.83512
N          5.97852       -3.24778       -0.65952
C          5.07736       -2.56434        0.08438
C          3.93443       -2.22236       -0.71665
C          2.96056       -1.48735        0.14046
O          1.88632       -1.00598       -0.14167
C          3.63865       -1.47467        1.45594
C          4.90785       -2.14222        1.33337
N          5.53254       -2.15627        2.53938
C          4.68048       -1.53893        3.31332
C          3.43053       -1.06071        2.69842
C          4.07911       -2.66836       -1.96381
C          3.18952       -2.58599       -3.08372
C          2.32242       -1.57544       -3.24659
C          1.39795       -1.44248       -4.35295
C          1.51502       -0.32418       -5.10723
C          0.57513       -0.08363       -6.17558
C          0.51230        0.93093       -7.07157
C          1.48605        2.07679       -7.21535
C          2.15641        2.08917       -8.60829
N          3.37715        2.90554       -8.62272
C          0.84774        3.43141       -6.81780
N          1.79436        4.56099       -6.83684
C         -0.69460        0.65927       -7.85245
C         -1.22522        1.27198       -8.92248
C         -2.51145        0.79012       -9.59557
C         -3.12712       -0.43441       -8.90991
C         -2.58928       -1.05031       -7.84396
C         -1.34981       -0.54310       -7.33108
C         -0.55414       -1.01321       -6.36107
C         -0.62312       -2.21807       -5.56868
C          0.32549       -2.41963       -4.63134
C         -3.48726        1.95017       -9.73083
C         -4.82753        1.83510       -9.68004
C         -5.82544        2.91047       -9.70620
N         -6.95297        2.75639       -9.05067
C         -7.59398        3.92762       -9.26534
C         -6.80754        4.78409      -10.11313
C         -7.57093        6.03518      -10.35168
O         -7.27702        6.99421      -11.02588
C         -8.79870        5.81900       -9.54695
C         -8.72890        4.52265       -8.92841
N         -9.84204        4.29603       -8.18733
C        -10.52311        5.39566       -8.34658
C         -9.92637        6.43281       -9.21724
C         -5.66262        4.19840      -10.44716
C         -4.62604        4.61653      -11.33509
C         -3.93297        5.75235      -11.17414
C         -2.86020        6.13986      -12.06095
C         -1.60217        6.37093      -11.66591
C         -0.52076        6.82051      -12.58436
O         -0.57663        6.98130      -13.78492
C          0.64890        7.04527      -11.72353
C          1.89258        7.54248      -12.07189
C          2.82922        7.72302      -11.04706
C          2.51258        7.40152       -9.71395
C          1.25405        6.89559       -9.38374
C          0.34045        6.72482      -10.40484
C         -1.04322        6.25343      -10.29339
O         -1.57943        5.85078       -9.28283
H         12.60526       -6.39763       -2.43781
H         12.15864       -6.84547       -4.83679
H          9.90240       -6.38156       -5.81702
H         10.77678       -5.55303       -0.95205
H          5.48820       -3.94570       -3.94518
H          4.83952       -1.37127        4.38929
H          2.60041       -0.54777        3.14532
H          3.23639       -3.37213       -3.83164
H          2.26712       -0.75276       -2.53468
H          2.27944        0.41629       -4.90262
H          2.29817        1.90707       -6.49519
H          1.46807        2.49204       -9.35730
H          2.42562        1.07248       -8.91600
H          3.15160        3.77715       -8.12387
H          3.57697        3.18903       -9.57961
H          0.44228        3.36031       -5.80093
H          0.01257        3.67418       -7.48272
H          2.49817        4.41124       -6.11105
H          1.28825        5.40054       -6.55504
H         -0.73659        2.12940       -9.36955
H         -2.23988        0.48082      -10.61389
H         -4.05413       -0.83651       -9.30755
H         -3.07525       -1.89526       -7.37003
H         -1.39910       -2.95033       -5.75545
H          0.30857       -3.32361       -4.02904
H         -3.03736        2.93348       -9.85345
H         -5.29506        0.87404       -9.50323
H        -11.49708        5.59220       -7.87377
H        -10.31620        7.39341       -9.48088
H         -4.39069        3.93940      -12.15284
H         -4.12842        6.40881      -10.32577
H         -3.12654        6.27050      -13.10932
H          2.12761        7.80108      -13.09981
H          3.81279        8.12949      -11.27747
H          3.25115        7.55763       -8.92913
H          0.98912        6.66091       -8.36045
