116

C          2.99546       -8.04617       -0.64948
C          2.54420       -9.31280       -0.30132
F          2.11016       -9.53408        0.94571
C          2.56233      -10.35742       -1.21579
C          3.02305      -10.13323       -2.51423
C          3.50423       -8.87021       -2.89142
C          3.50676       -7.81435       -1.93206
C          4.08509       -6.57382       -2.24206
C          4.73222       -6.41756       -3.45776
C          4.62715       -7.42732       -4.42730
C          4.01820       -8.64509       -4.17632
C          5.30828       -7.02213       -5.67324
O          5.34894       -7.65041       -6.70976
C          5.88067       -5.66351       -5.39525
C          5.73316       -5.43517       -3.94980
C          6.58186       -4.76060       -3.13662
C          7.86957       -4.34538       -3.59154
N          8.94796       -4.07758       -3.91963
C          6.28885       -4.46476       -1.77708
N          5.99888       -4.17005       -0.69066
C          6.20366       -4.87369       -6.43562
C          6.48105       -3.47071       -6.35974
S          7.62588       -2.79650       -7.46183
C          7.48827       -1.24187       -6.77943
C          6.58382       -1.21167       -5.74126
C          5.93725       -2.47155       -5.55502
O          4.95243       -2.82531       -4.69066
C          4.29078       -2.02967       -3.80305
C          3.98978       -0.73975       -3.91970
C          3.22092        0.03220       -2.96973
C          2.28808        0.84962       -3.52425
C          1.95760        2.06818       -2.82121
C          1.45888        3.21991       -3.34840
C          0.69629        3.38653       -4.66491
C         -0.83806        3.26088       -4.43780
N         -1.42076        4.29885       -3.58960
C          1.05704        4.63392       -5.50485
N          0.35598        4.78502       -6.78483
C          2.08503        4.24052       -2.48555
C          2.51769        5.47933       -2.77305
C          3.48550        6.23947       -1.87913
C          3.83587        5.54525       -0.58013
C          3.40868        4.30959       -0.27962
C          2.65245        3.61792       -1.28642
C          2.59005        2.30269       -1.51000
C          3.23640        1.22515       -0.80459
C          3.56752        0.14278       -1.53422
C          2.94520        7.61050       -1.59446
C          3.61878        8.70890       -1.95591
C          3.11948       10.02844       -1.79654
S          3.63327       11.15976       -3.01343
C          2.74618       12.43310       -2.33417
C          2.09893       12.04594       -1.18961
C          2.28253       10.65436       -0.87600
O          1.73407       10.02963        0.21955
C          0.57778       10.58209        0.72547
C          0.04991       10.52597        1.95615
C          0.41444        9.74927        3.11127
C          1.53387        9.63602        3.82990
C          1.58850        8.40560        4.68372
O          0.67806        7.81584        5.22591
C          2.99157        7.98458        4.61252
C          3.43186        6.69041        4.81820
C          4.71790        6.37734        4.38060
C          5.56072        7.40277        3.85141
C          6.83113        7.05834        3.38068
C          7.23046        5.72682        3.37141
C          6.40625        4.72127        3.85811
C          5.15797        5.04680        4.38415
F          8.42261        5.40577        2.85203
C          5.09359        8.72528        3.72232
C          3.77919        9.00237        4.04782
C          2.89752       10.16384        3.75417
C          3.26641       11.46573        3.65304
C          2.29557       12.50702        3.60633
N          1.51814       13.36549        3.60047
C          4.63219       11.87727        3.72332
N          5.75288       12.20167        3.78901
H          2.98269       -7.26537        0.10632
H          2.22715      -11.34297       -0.90802
H          3.03894      -10.96423       -3.21707
H          4.07799       -5.78949       -1.49226
H          4.01108       -9.41601       -4.94219
H          6.20817       -5.30928       -7.43580
H          8.08331       -0.42296       -7.16401
H          6.40713       -0.30421       -5.18211
H          3.90624       -2.63273       -2.98797
H          4.31630       -0.17223       -4.78738
H          2.06489        0.79056       -4.58433
H          0.95309        2.52985       -5.30351
H         -1.07032        2.27882       -4.00810
H         -1.35722        3.28944       -5.40381
H         -0.98435        4.25704       -2.66699
H         -2.40801        4.09195       -3.43662
H          2.13117        4.61135       -5.72203
H          0.83677        5.54418       -4.94483
H          0.23030        3.88468       -7.23969
H         -0.58155        5.14411       -6.58984
H          2.34633        5.94837       -3.72906
H          4.42324        6.31421       -2.45235
H          4.50578        6.06260        0.10018
H          3.70980        3.80930        0.63245
H          3.50981        1.33259        0.23708
H          4.14271       -0.65742       -1.07527
H          1.97114        7.66672       -1.11721
H          4.56842        8.59020       -2.47881
H          2.74994       13.41144       -2.79303
H          1.50510       12.73762       -0.60634
H          0.01283       11.10772       -0.04069
H         -0.90235       11.03494        2.08507
H         -0.42962        9.12140        3.41690
H          2.74567        5.93593        5.19322
H          7.50502        7.80664        2.97397
H          6.73571        3.68764        3.81371
H          4.51516        4.24988        4.75292
H          5.73772        9.47401        3.26856
