113

C         12.84345       -1.04163      -13.35887
C         12.77646       -1.63481      -14.60854
F         13.87798       -2.19177      -15.12754
C         11.58529       -1.66521      -15.31985
C         10.42265       -1.12480      -14.75676
C         10.44879       -0.54214      -13.47540
C         11.69624       -0.48421      -12.78863
C         11.79272        0.11101      -11.52755
C         10.64890        0.56303      -10.89516
C          9.41424        0.48139      -11.56167
C          9.29225       -0.03577      -12.84718
C          8.32926        0.98477      -10.68248
O          7.15426        1.08304      -10.96759
C          8.98783        1.27354       -9.36046
C         10.43721        1.25065       -9.59872
C         11.38035        2.05532       -9.05770
C         11.02627        3.34820       -8.58063
N         10.74521        4.44779       -8.32769
C         12.75843        1.70577       -9.02184
N         13.86671        1.35732       -8.97742
C          8.29029        1.15967       -8.21085
C          8.94228        1.04180       -6.87452
N         10.11938        1.55150       -6.59164
C         10.30733        1.26667       -5.28224
C          9.18554        0.53442       -4.77346
C          9.41038        0.24856       -3.33322
O          8.69884       -0.33688       -2.54858
C         10.72855        0.88186       -3.08948
C         11.19366        1.47810       -4.31507
N         12.39020        2.08596       -4.11171
C         12.61948        1.85659       -2.84748
C         11.60206        1.07483       -2.11050
C          8.27541        0.33878       -5.72298
C          7.00881       -0.29797       -5.56593
C          6.58305       -1.39791       -6.20477
C          5.32109       -1.99911       -5.88264
S          5.31072       -3.67309       -5.58475
C          4.04083       -1.46049       -5.75982
C          3.73768        0.03152       -5.94057
C          3.43114        0.52814       -7.36084
N          4.50583        0.34814       -8.33396
C          3.03589       -2.48552       -5.35361
C          1.58712       -2.09492       -5.09001
C          0.57128       -2.27791       -6.21589
N          0.82913       -1.41001       -7.34729
C          3.62468       -3.75346       -5.20432
C          3.18144       -5.10453       -4.80121
N          3.80625       -6.16741       -5.28769
C          3.23337       -7.23140       -4.67224
C          2.18230       -6.78828       -3.80196
C          1.59854       -7.97543       -3.11851
O          0.70603       -8.02520       -2.30160
C          2.41756       -9.08828       -3.65746
C          3.39297       -8.54744       -4.57018
N          4.19766       -9.54519       -5.02655
C          3.70894      -10.60498       -4.44255
C          2.54031      -10.40471       -3.55831
C          2.08938       -5.45965       -3.80735
C          1.28576       -4.59275       -3.00202
C          0.01235       -4.82495       -2.63907
C         -0.85442       -3.77728       -2.13160
C         -1.84810       -3.83026       -1.23135
C         -2.43217       -2.52620       -0.76052
O         -2.42180       -1.46299       -1.32426
C         -2.94629       -2.79675        0.59696
C         -3.44215       -1.85234        1.48509
C         -3.70489       -2.25233        2.80172
C         -3.44520       -3.59984        3.18938
C         -3.61133       -3.95573        4.53722
C         -4.03173       -3.01198        5.47081
C         -4.33579       -1.71301        5.09114
C         -4.17893       -1.33438        3.75724
F         -4.13294       -3.36093        6.76023
C         -3.00465       -4.54689        2.23366
C         -2.76896       -4.15049        0.92355
C         -2.33156       -4.86803       -0.31972
C         -2.61793       -6.16113       -0.61085
C         -2.60141       -6.65930       -1.94435
N         -2.66176       -7.04733       -3.03952
C         -3.10661       -7.07217        0.35687
N         -3.48369       -7.81858        1.15877
H         13.79281       -1.04546      -12.82914
H         11.56965       -2.12075      -16.30508
H          9.49577       -1.17630      -15.32427
H         12.77148        0.19762      -11.07049
H          8.31978       -0.06948      -13.33273
H          7.20869        1.05186       -8.23353
H         13.51058        2.21209       -2.30789
H         11.59536        0.77689       -1.08141
H          6.41685        0.10922       -4.74724
H          7.22722       -1.91078       -6.91606
H          4.57097        0.62642       -5.56213
H          2.90891        0.31441       -5.28636
H          3.18588        1.59489       -7.30746
H          2.54663        0.05876       -7.76676
H          4.95134       -0.55575       -8.19394
H          4.08694        0.29236       -9.26640
H          1.54312       -1.06924       -4.71039
H          1.19137       -2.65882       -4.26600
H         -0.42281       -2.03356       -5.82139
H          0.54676       -3.31717       -6.55414
H          1.72958       -1.68096       -7.74286
H          0.14340       -1.56541       -8.08303
H          4.12223      -11.61951       -4.55819
H          1.99320      -11.13490       -2.99512
H          1.75823       -3.65207       -2.73290
H         -0.42236       -5.79156       -2.85567
H         -0.63376       -2.79425       -2.56045
H         -3.57376       -0.82128        1.16645
H         -3.39366       -4.96151        4.88663
H         -4.67540       -1.00039        5.83715
H         -4.41171       -0.30881        3.47555
H         -2.82784       -5.56907        2.55549
