110

C         11.13032        1.34334      -16.54842
C         11.04299        2.26388      -17.58518
F         10.98088        1.82404      -18.84853
C         11.01797        3.62896      -17.33372
C         11.07795        4.09132      -16.01773
C         11.16166        3.18602      -14.94733
C         11.18894        1.78482      -15.22179
C         11.27176        0.85543      -14.17113
C         11.29875        1.31366      -12.86225
C         11.29569        2.68635      -12.61340
C         11.22262        3.63589      -13.62007
C         11.39141        2.92619      -11.17039
O         11.41060        4.01178      -10.62753
C         11.46512        1.56898      -10.51727
C         11.41126        0.55349      -11.58696
C         10.80993       -0.65170      -11.43456
C          9.52719       -0.88850      -12.01849
N          8.48461       -1.04786      -12.51284
C         11.68405       -1.77934      -11.41309
N         12.42126       -2.68557      -11.49029
C         11.60373        1.57252       -9.18497
C         11.71842        0.44687       -8.33392
S         12.63129        0.62105       -6.87510
C         12.12635       -0.96331       -6.41855
N         11.39871       -1.55166       -7.35034
N         11.17441       -0.74642       -8.45496
C         12.50423       -1.44779       -5.13680
C         11.74403       -2.32803       -4.46774
C         12.08571       -2.80205       -3.13225
C         12.27254       -4.13377       -2.93628
C         12.53091       -4.64632       -1.59969
C         12.74800       -5.90775       -1.13114
C         12.97859       -7.21337       -1.89154
C         11.80885       -7.59047       -2.84541
N         10.52827       -7.79757       -2.17035
C         14.31124       -7.22692       -2.71893
N         15.53831       -7.06978       -1.93360
C         12.67894       -5.75957        0.33946
C         12.52248       -6.63738        1.34582
C         12.36939       -6.21555        2.80460
C         12.51519       -4.71943        3.03710
C         12.64911       -3.83487        2.03362
C         12.63386       -4.33775        0.68506
C         12.52825       -3.68138       -0.47634
C         12.41957       -2.26761       -0.73174
C         12.21205       -1.86286       -1.99730
C         13.36424       -6.98199        3.62923
C         13.11778       -8.17167        4.20501
C         14.15407       -8.84052        4.90502
S         13.84549      -10.37046        5.63303
C         15.47800      -10.36930        6.19811
N         16.14974       -9.30192        5.82017
N         15.39494       -8.42839        5.07698
C         15.93530      -11.47653        6.96072
C         16.85903      -11.41194        7.93165
C         17.56852      -10.23765        8.38754
C         18.08420      -10.02262        9.60682
C         19.05978       -8.89228        9.74276
O         19.16069       -7.89566        9.06016
C         19.93622       -9.27528       10.86047
C         21.10457       -8.62979       11.23256
C         21.86570       -9.18870       12.26445
C         21.44153      -10.40646       12.87467
C         22.22965      -10.96387       13.89152
C         23.39685      -10.32745       14.30240
C         23.81142       -9.13811       13.71933
C         23.04928       -8.57022       12.69849
F         24.13212      -10.87154       15.28081
C         20.24571      -11.03397       12.46141
C         19.46864      -10.45000       11.47052
C         18.15992      -10.80878       10.84754
C         17.16811      -11.50869       11.45027
C         15.83282      -11.53845       10.94317
N         14.73795      -11.56519       10.57175
C         17.33785      -12.18778       12.69231
N         17.46567      -12.76073       13.69351
H         11.14490        0.28499      -16.79409
H         10.95068        4.32442      -18.16447
H         11.05631        5.16446      -15.83716
H         11.31537       -0.20882      -14.38962
H         11.21407        4.69434      -13.37264
H         11.64347        2.53880       -8.68089
H         13.41833       -1.07012       -4.68595
H         10.80567       -2.69263       -4.88268
H         12.15355       -4.83501       -3.74996
H         13.08089       -8.02894       -1.16424
H         12.04008       -8.51975       -3.37830
H         11.68030       -6.83049       -3.62059
H         10.58400       -8.62817       -1.58339
H          9.81052       -7.99431       -2.86825
H         14.28939       -6.45078       -3.49319
H         14.42011       -8.18713       -3.24168
H         15.31199       -6.68651       -1.01589
H         15.95157       -7.98557       -1.75963
H         12.43019       -7.70263        1.18503
H         11.35240       -6.48887        3.11879
H         12.48177       -4.35960        4.06209
H         12.73873       -2.77105        2.21838
H         12.50547       -1.55838        0.08175
H         12.11639       -0.80159       -2.21018
H         14.35984       -6.54567        3.71069
H         12.14449       -8.64840        4.13424
H         15.45734      -12.43496        6.77731
H         17.08368      -12.34567        8.44152
H         17.78215       -9.49600        7.61186
H         21.41282       -7.72381       10.71689
H         21.94648      -11.89109       14.38248
H         24.72485       -8.66119       14.06099
H         23.38707       -7.63941       12.24613
H         19.96304      -11.97410       12.92550
