160

C         -3.40559        5.88269      -10.47840
C         -4.26632        5.79005      -11.56282
F         -5.25453        6.68447      -11.69328
C         -4.14192        4.76457      -12.49032
C         -3.12142        3.81965      -12.34920
C         -2.25094        3.86694      -11.24776
C         -2.41934        4.90948      -10.28678
C         -1.67760        4.90767       -9.10019
C         -0.87971        3.81145       -8.82291
C         -0.61246        2.86389       -9.82405
C         -1.27010        2.87945      -11.04301
C          0.32548        1.83273       -9.31487
O          0.82161        0.92547       -9.94752
C          0.53927        2.16720       -7.86764
C         -0.42278        3.22787       -7.53508
C         -1.26528        3.22401       -6.47044
C         -1.55588        2.01168       -5.77893
N         -1.91170        1.01233       -5.30829
C         -2.15790        4.28969       -6.17542
N         -2.88114        5.17040       -5.93260
C          1.56432        1.67339       -7.14982
C          1.90746        2.22530       -5.87460
S          2.79729        3.71153       -5.85002
C          2.63287        3.86987       -4.16378
C          1.99476        2.78564       -3.60937
C          1.67228        1.77726       -4.57577
C          1.02725        0.52592       -4.27390
C          1.07437       -0.24299       -3.16363
C          0.16388       -1.45468       -3.03423
C          0.76819       -2.70705       -3.62754
C          1.59111       -3.53813       -2.86071
C          2.21595       -4.64486       -3.44131
C          2.03344       -4.94818       -4.79940
C          2.83329       -6.07495       -5.41123
C          2.18083       -6.80475       -6.57820
C          1.19368       -4.12362       -5.55730
C          0.56413       -3.01917       -4.97722
C          1.96918       -0.04135       -2.03494
C          3.29262       -0.19125       -2.17687
C          4.34218       -0.00809       -1.18409
C          4.26519        1.01303       -0.28970
C          5.49789        1.57863        0.24267
C          5.76575        2.78962        0.81399
C          4.92735        3.92806        1.39130
C          3.39912        3.67816        1.48236
N          2.70896        3.84510        0.19279
C          5.42789        4.39803        2.79776
N          5.37135        3.39002        3.85473
C          7.21009        2.94860        0.57378
C          7.93192        4.06555        0.38480
C          9.37185        4.01594       -0.11196
C          9.94984        2.61038       -0.23681
C          9.20451        1.50176       -0.09665
C          7.80533        1.68502        0.16717
C          6.76793        0.88363       -0.09170
C          6.75572       -0.39139       -0.75650
C          5.59537       -0.78194       -1.30949
C         10.21171        4.91236        0.74573
C         10.87343        4.56152        1.86136
C         11.62735        5.55573        2.53497
S         13.18027        5.95662        1.90104
C         13.36410        7.24124        2.99493
C         12.30377        7.32930        3.87598
C         11.32514        6.30773        3.66693
C         10.11879        6.09459        4.42902
C          9.82163        6.33080        5.72831
C          8.45504        5.90193        6.26714
C          7.38699        6.97825        6.24230
C          6.96734        7.55922        5.03715
C          5.99449        8.56463        5.02565
C          5.41734        9.01281        6.21908
C          4.47090       10.18758        6.21764
C          3.01636        9.81483        5.98504
C          5.78056        8.38569        7.41612
C          6.75823        7.38336        7.42813
C         10.74887        6.88787        6.70863
C         11.23293        6.21082        7.76458
C         12.12625        6.80315        8.74428
C         13.26887        6.26695        9.20266
C         14.04949        6.92709       10.30329
O         13.77676        7.94991       10.89520
C         15.24264        6.08526       10.51542
C         16.36319        6.41941       11.26738
C         17.51147        5.61875       11.14572
C         17.47583        4.46866       10.30686
C         18.64041        3.71691       10.10492
C         19.82520        4.09135       10.71926
C         19.87506        5.19494       11.55820
C         18.72108        5.95497       11.77819
F         20.94032        3.39050       10.47933
C         16.30014        4.12023        9.62516
C         15.18606        4.94753        9.69958
C         13.95497        5.01498        8.84922
C         13.99954        4.45874        7.61628
C         14.18761        5.32028        6.49870
N         14.51279        6.04262        5.65351
C         14.32621        3.08605        7.42740
N         14.58996        1.96229        7.30781
H         -3.55969        6.68409       -9.76009
H         -4.85183        4.69857      -13.30898
H         -3.04866        3.01561      -13.07892
H         -1.83272        5.69536       -8.36830
H         -1.09763        2.08573      -11.76510
H          2.22979        0.92401       -7.57431
H          3.01025        4.74727       -3.65648
H          1.77467        2.72151       -2.55006
H          0.39832        0.13564       -5.07050
H         -0.79956       -1.25473       -3.52262
H         -0.09565       -1.63021       -1.98150
H          1.77210       -3.31434       -1.81160
H          2.86851       -5.25999       -2.82529
H          3.05534       -6.81923       -4.63634
H          3.79382       -5.66119       -5.74232
H          1.20576       -7.21422       -6.29578
H          2.81890       -7.63404       -6.90148
H          2.04172       -6.14736       -7.44216
H          1.03164       -4.30893       -6.61545
H         -0.07105       -2.38840       -5.59558
H          1.51966        0.15994       -1.06691
H          3.67913       -0.43288       -3.16945
H          3.34699        1.56680       -0.18961
H          5.06647        4.79673        0.73160
H          2.93420        4.38789        2.17711
H          3.19447        2.68123        1.88975
H          2.43343        4.81806        0.07893
H          3.36610        3.65204       -0.56464
H          4.81335        5.24893        3.12000
H          6.45094        4.78482        2.73775
H          6.09702        2.69096        3.68928
H          5.59924        3.82724        4.74854
H          7.47631        5.04567        0.47314
H          9.38595        4.43403       -1.12929
H         11.00068        2.51652       -0.49858
H          9.61694        0.50804       -0.22314
H          7.66538       -0.96605       -0.87318
H          5.55038       -1.70181       -1.88570
H         10.25300        5.94814        0.40756
H         10.84184        3.55154        2.26073
H         14.25791        7.84866        2.97348
H         12.27170        8.08936        4.63698
H          9.31938        5.63169        3.84772
H          8.56476        5.51685        7.28947
H          8.07526        5.04408        5.69510
H          7.40739        7.25154        4.09225
H          5.71218        9.01813        4.07811
H          4.79075       10.89875        5.44561
H          4.55989       10.72667        7.16905
H          2.88380        9.27225        5.04371
H          2.40478       10.72312        5.93934
H          2.63006        9.19092        6.79725
H          5.32506        8.69273        8.35525
H          7.03256        6.93212        8.37935
H         11.04903        7.92025        6.53956
H         10.94281        5.17526        7.93076
H         11.80019        7.76497        9.14635
H         16.36898        7.33103       11.85895
H         18.65305        2.85982        9.43720
H         20.81773        5.46766       12.02290
H         18.78564        6.82968       12.42336
H         16.32357        3.24432        8.98520
