106

C          8.48725        6.03932      -10.05056
C          7.77634        6.70617      -11.03883
F          8.42735        7.52471      -11.87518
C          6.40058        6.55992      -11.15486
C          5.71788        5.70384      -10.28663
C          6.40556        5.02140       -9.26934
C          7.81364        5.22340       -9.13616
C          8.51332        4.67120       -8.05459
C          7.80429        3.98956       -7.08322
C          6.45235        3.67376       -7.29642
C          5.73403        4.17773       -8.36734
C          5.96672        2.78841       -6.20973
O          4.87570        2.27004       -6.12027
C          7.14153        2.61510       -5.28736
C          8.12392        3.61562       -5.68402
C          8.81824        4.43897       -4.85610
C          8.50548        4.51742       -3.46141
N          8.16877        4.64664       -2.35898
C          9.72750        5.42631       -5.32443
N         10.47025        6.21316       -5.74376
C          7.22834        1.54299       -4.48850
C          8.47736        1.13441       -3.79102
N          9.44933        1.93810       -3.43959
C         10.33808        1.12806       -2.81478
C          9.90519       -0.23792       -2.89183
C         10.89939       -1.10129       -2.20850
O         10.94248       -2.30831       -2.13605
C         11.83678       -0.10194       -1.63980
C         11.43017        1.21412       -2.06328
N         12.24338        2.15297       -1.51677
C         13.07203        1.43724       -0.80687
C         12.89728       -0.03172       -0.84608
C          8.70301       -0.30573       -3.44804
C          7.84149       -1.42265       -3.60582
C          6.60919       -1.46502       -3.08051
C          5.78440       -2.57856       -3.33563
N          4.42499       -2.36417       -3.36020
C          3.83359       -3.52334       -3.77366
C          2.57994       -4.07698       -4.11638
C          2.86098       -5.37985       -4.49434
N          4.20168       -5.63304       -4.31181
C          4.79251       -4.46925       -3.91628
C          6.05214       -3.90633       -3.62340
C          2.06971       -6.44402       -4.97539
C          0.98812       -6.21474       -5.73460
C          0.18922       -7.39276       -6.11330
N          0.11076       -8.46888       -5.36790
C         -0.70677       -9.27654       -6.07658
C         -1.09392       -8.64417       -7.31143
C         -1.93927       -9.60215       -8.07594
O         -2.39516       -9.50039       -9.19307
C         -2.05245      -10.74926       -7.14170
C         -1.27342      -10.47140       -5.96533
N         -1.34763      -11.51070       -5.09536
C         -2.13104      -12.34786       -5.71652
C         -2.63082      -11.93935       -7.04768
C         -0.61805       -7.40091       -7.38105
C         -0.76927       -6.37463       -8.37677
C         -1.89542       -6.23002       -9.09444
C         -2.15715       -5.25565      -10.12583
C         -2.17414       -3.91676      -10.07875
C         -2.42385       -3.18841      -11.37220
O         -2.79989       -3.64755      -12.43089
C         -2.08801       -1.78161      -11.11619
C         -2.20896       -0.73436      -12.01659
C         -1.85081        0.54829      -11.58650
C         -1.28449        0.72204      -10.29019
C         -0.90552        2.00637       -9.87821
C         -1.12759        3.09977      -10.70783
C         -1.70994        2.94614      -11.95838
C         -2.05830        1.67074      -12.40466
F         -0.78873        4.32449      -10.28472
C         -1.15382       -0.37649       -9.41717
C         -1.63687       -1.62034       -9.79979
C         -1.90108       -2.89295       -9.05837
C         -2.17309       -2.94336       -7.73056
C         -2.83777       -4.04561       -7.11427
N         -3.41145       -4.89222       -6.57417
C         -1.94751       -1.84551       -6.84935
N         -1.74488       -0.95516       -6.13231
H          9.55970        6.20263       -9.98149
H          5.86766        7.12092      -11.91625
H          4.63872        5.60616      -10.38920
H          9.58001        4.84986       -7.95208
H          4.67220        3.96688       -8.46275
H          6.37929        0.86979       -4.42344
H         13.87278        1.86193       -0.18284
H         13.45510       -0.78900       -0.33341
H          8.24576       -2.25877       -4.17295
H          6.21624       -0.63465       -2.49706
H          3.91492       -1.50665       -3.18674
H          1.61246       -3.59580       -4.10047
H          4.71186       -6.49262       -4.47386
H          7.02164       -4.38401       -3.65778
H          2.35533       -7.46242       -4.71212
H          0.67553       -5.23000       -6.04923
H         -2.42989      -13.32554       -5.31032
H         -3.27016      -12.47573       -7.71863
H          0.06981       -5.70101       -8.52727
H         -2.71888       -6.93586       -8.96643
H         -2.42912       -5.73520      -11.07215
H         -2.60974       -0.91580      -13.01055
H         -0.46391        2.17961       -8.90022
H         -1.89363        3.81995      -12.57580
H         -2.51661        1.56452      -13.38622
H         -0.71372       -0.21066       -8.43853
