112

C          9.90076       -9.40623       -2.15644
C          9.64852       -9.75289       -3.47868
F          9.68318      -11.04295       -3.83711
C          9.38113       -8.78469       -4.43657
C          9.32642       -7.44055       -4.06419
C          9.57325       -7.05813       -2.73576
C          9.90096       -8.05925       -1.77198
C         10.26377       -7.69333       -0.46318
C         10.32818       -6.34898       -0.13427
C          9.87527       -5.39098       -1.05220
C          9.51374       -5.71149       -2.34918
C          9.84099       -4.05488       -0.41935
O          9.47861       -3.02216       -0.93995
C         10.29091       -4.27241        1.00055
C         10.88356       -5.61588        1.02969
C         12.01696       -5.98761        1.67250
C         12.79618       -5.03756        2.39606
N         13.45681       -4.24774        2.94252
C         12.59372       -7.28251        1.54792
N         13.03859       -8.34925        1.45290
C          9.94764       -3.38651        1.95434
C         10.04610       -3.50306        3.39079
C          9.98582       -4.70813        4.06479
S         10.19437       -4.54740        5.75126
C         10.28001       -2.85142        5.62512
C         10.16701       -2.39524        4.32064
C         10.21153       -0.96890        3.99499
O          9.64198       -0.48826        3.02152
O         11.00681       -0.27645        4.87382
C         11.60712        0.87356        4.33778
C         11.50057        2.06628        4.95997
C         12.24091        3.19898        4.43330
C         12.35296        4.48955        4.85016
C         11.76699        5.20541        6.05836
C         10.35918        5.74854        5.70145
N          9.72665        6.49541        6.79454
C         11.69871        4.38379        7.37825
N         12.99639        3.87983        7.83362
C         13.23287        5.12958        3.85081
C         13.68744        6.38865        3.71717
C         14.61721        6.80843        2.56867
C         14.94600        5.68613        1.59242
C         14.48949        4.43138        1.73079
C         13.63607        4.14167        2.85081
C         13.05144        2.99218        3.20721
C         13.13682        1.68834        2.59497
C         12.45490        0.67557        3.15772
C         15.86159        7.46926        3.12397
C         17.03641        6.87445        3.40488
C         18.11424        7.54479        4.06464
C         18.16344        7.56029        5.44455
S         19.49053        8.44470        6.04214
C         20.01665        8.79987        4.46043
C         19.22200        8.24520        3.46520
C         19.51960        8.43132        2.04225
O         18.81241        8.02955        1.12475
O         20.70741        9.11364        1.86229
C         20.88360        9.67755        0.60455
C         21.96861        9.52108       -0.15682
C         21.93709       10.06290       -1.54840
O         21.19313       10.90627       -2.00460
C         22.98030        9.32511       -2.27529
C         23.26444        9.43534       -3.62627
C         24.24777        8.59621       -4.15823
C         24.87445        7.62050       -3.32717
C         25.83147        6.76482       -3.88538
C         26.18898        6.89543       -5.22252
C         25.60507        7.85992       -6.03284
C         24.62775        8.70290       -5.50578
F         27.12260        6.08341       -5.73514
C         24.55033        7.53923       -1.95685
C         23.64272        8.43568       -1.41518
C         23.18253        8.70990       -0.02255
C         23.90616        8.48244        1.10062
C         23.57072        9.06174        2.35872
N         23.35071        9.55482        3.38655
C         25.13356        7.75957        1.09122
N         26.12905        7.16367        1.07899
H         10.12069      -10.19862       -1.44662
H          9.21864       -9.08187       -5.46810
H          9.11412       -6.69291       -4.82559
H         10.52574       -8.46521        0.25514
H          9.21717       -4.92734       -3.04070
H          9.48358       -2.46203        1.59869
H          9.84317       -5.70185        3.66764
H         10.39781       -2.25922        6.52448
H         10.88332        2.16161        5.83872
H         12.40982        6.06805        6.28325
H          9.69589        4.91893        5.42919
H         10.42437        6.41058        4.83013
H          8.81719        6.83937        6.48681
H         10.28324        7.31868        7.02053
H         11.00025        3.54931        7.29130
H         11.29825        5.00692        8.18617
H         13.58626        4.67011        8.09063
H         12.85983        3.34230        8.68905
H         13.40167        7.15905        4.42388
H         14.08081        7.56643        1.98197
H         15.57431        5.93401        0.74050
H         14.73708        3.65563        1.01568
H         13.75599        1.53150        1.72091
H         12.52546       -0.31894        2.72920
H         15.75003        8.52981        3.34229
H         17.15937        5.80732        3.22734
H         17.47047        7.10482        6.13836
H         20.89849        9.41391        4.34072
H         20.02269       10.27085        0.30845
H         22.73237       10.15896       -4.23640
H         26.32445        6.00041       -3.28993
H         25.91479        7.95022       -7.06912
H         24.17506        9.45335       -6.15113
H         25.03060        6.77688       -1.35065
