128

C          3.94986       -4.58124       -3.76547
C          3.15326       -5.36142       -4.59465
F          1.87560       -5.58114       -4.25881
C          3.65185       -5.89376       -5.77553
C          4.97533       -5.64290       -6.14231
C          5.79548       -4.83179       -5.34151
C          5.27002       -4.29208       -4.13033
C          6.03958       -3.41292       -3.34934
C          7.27584       -2.98806       -3.82249
C          7.78962       -3.56119       -4.99215
C          7.09523       -4.49630       -5.74472
C          9.04744       -2.90453       -5.37409
O          9.75084       -3.20085       -6.31796
C          9.26066       -1.79043       -4.38169
C          8.10960       -1.79097       -3.46225
C          7.37208       -0.70110       -3.14912
C          7.21488        0.36676       -4.07234
N          7.06018        1.20584       -4.86285
C          6.62704       -0.64700       -1.93243
N          6.05210       -0.61849       -0.92791
C         10.42653       -1.12200       -4.44810
C         10.97145       -0.10287       -3.58913
S         10.03036        1.02714       -2.71709
C         11.33650        2.09944       -2.34064
C         12.45604        1.62168       -3.00423
C         12.30413        0.21842       -3.35924
C         13.40193       -0.61016       -3.64890
C         13.40794       -2.08640       -3.63975
O         14.17824       -2.65315       -4.41788
C         12.56069       -2.82449       -2.59919
F         11.85893       -2.01978       -1.75182
F         11.63856       -3.64622       -3.17711
F         13.31886       -3.61834       -1.79076
C         14.62037        0.10374       -3.75994
C         14.73682        1.50773       -3.53685
C         13.66922        2.31756       -3.10566
C         11.10642        3.15106       -1.36272
C         12.16961        3.55136       -0.60947
C         11.95310        4.19684        0.66764
C         12.83945        4.56189        1.63243
C         14.34558        4.75973        1.49732
C         14.57832        6.25499        1.11821
N         15.98038        6.62578        0.90548
C         15.18619        4.31967        2.72437
N         16.64042        4.46411        2.56693
C         11.98473        4.77621        2.80475
C         12.21715        4.63599        4.12033
C         11.08603        4.64615        5.14156
C          9.75977        5.14812        4.59724
C          9.51586        5.22298        3.27690
C         10.58446        4.84915        2.39113
C         10.56863        4.43130        1.12078
C          9.47317        4.19941        0.22015
C          9.74320        3.61144       -0.96137
C         11.52849        5.33956        6.39992
C         11.48808        6.65352        6.68389
C         11.98813        7.13401        7.93420
S         11.19927        8.46453        8.69481
C         11.97259        8.21349       10.22906
C         12.75688        7.07332       10.12764
C         13.02240        6.70722        8.75294
C         14.02653        5.79135        8.38737
C         14.57526        5.59260        7.03277
O         14.89081        4.44453        6.70767
C         14.80168        6.82324        6.15427
F         14.45863        8.00714        6.73109
F         16.11346        6.95222        5.80643
F         14.11121        6.76162        4.98274
C         14.57940        5.10576        9.49244
C         14.21629        5.37890       10.84401
C         13.33682        6.41702       11.22493
C         11.67674        9.01757       11.37922
C         11.23251       10.28398       11.40170
C         10.55747       10.73671       12.66340
O         10.75231       10.35123       13.79610
C          9.51639       11.68167       12.21315
C          8.52837       12.24757       12.99485
C          7.56191       13.03376       12.35724
C          7.58567       13.18190       10.93645
C          6.58308       13.93563       10.31405
C          5.60113       14.55511       11.07870
C          5.58757       14.44173       12.46250
C          6.56184       13.67572       13.10168
F          4.65535       15.28134       10.46921
C          8.61408       12.59447       10.17565
C          9.61046       11.88555       10.82568
C         10.88191       11.27184       10.37995
C         11.71051       11.84248        9.46811
C         13.11652       11.62633        9.49720
N         14.27792       11.55614        9.56441
C         11.25895       12.82830        8.54288
N         10.86025       13.61023        7.78180
H          3.50797       -4.16993       -2.86159
H          3.00224       -6.48732       -6.41129
H          5.34681       -6.05386       -7.07927
H          5.60886       -3.00535       -2.43946
H          7.52227       -4.87403       -6.67067
H         11.08743       -1.39832       -5.27362
H         15.53072       -0.44448       -4.01098
H         15.71644        1.97250       -3.65985
H         13.80355        3.37175       -2.89312
H         13.17992        3.20563       -0.77783
H         14.69698        4.15554        0.64904
H         14.15896        6.90327        1.89683
H         14.04684        6.48376        0.18638
H         16.52572        6.19101        1.66703
H         16.08818        7.62925        1.04060
H         14.96813        3.27319        2.96352
H         14.93019        4.93384        3.58736
H         16.95759        3.93987        1.75207
H         17.11330        4.07161        3.38099
H         13.19335        4.36826        4.49873
H         10.91070        3.59638        5.42215
H          8.96771        5.37562        5.30402
H          8.55743        5.53437        2.88095
H          8.46603        4.48063        0.50203
H          8.92224        3.42639       -1.64885
H         11.94353        4.63351        7.12012
H         11.02971        7.34985        5.98471
H         15.32946        4.33346        9.30983
H         14.67354        4.77335       11.62811
H         13.11905        6.61988       12.26615
H         11.74990        8.50367       12.33862
H          8.51608       12.07292       14.06689
H          6.55665       14.06234        9.23504
H          4.81773       14.94918       13.03521
H          6.53844       13.59268       14.18632
H          8.61668       12.71413        9.09561
