92

C          2.14182        2.47245        7.94680
C          1.07130        2.29432        8.81479
F          1.27623        1.69702        9.99601
C         -0.20969        2.70092        8.46815
C         -0.42890        3.32081        7.23710
C          0.63073        3.50242        6.33195
C          1.93478        3.04899        6.68784
C          2.98882        3.11560        5.75866
C          2.72939        3.56122        4.46904
C          1.45896        4.07446        4.16631
C          0.40997        4.07262        5.07140
C          1.38139        4.46529        2.74759
O          0.44949        5.01138        2.19633
C          2.68346        4.05169        2.14286
C          3.49661        3.41104        3.19152
C          4.19769        2.26273        3.03549
C          3.66390        1.20625        2.23727
N          3.15986        0.32462        1.67988
C          5.25372        1.91121        3.92346
N          6.12124        1.65134        4.64578
C          3.00151        4.38756        0.88025
C          4.27931        4.17530        0.26634
C          5.31469        5.07401        0.40908
F          5.20587        6.20670        1.05588
S          6.75926        4.55682       -0.30361
C          6.00717        3.14963       -0.87458
F          6.66711        2.22409       -1.52497
C          4.65652        3.08215       -0.58989
C          3.77914        2.04025       -1.05528
C          3.97727        1.30587       -2.16232
C          3.09178        0.27215       -2.55623
N          3.64189       -0.73843       -3.31819
C          2.65165       -1.62679       -3.62941
C          2.40792       -2.83906       -4.32046
C          1.05223       -3.09070       -4.15726
N          0.50814       -2.07989       -3.38146
C          1.49951       -1.19830       -3.06428
C          1.74616        0.00531       -2.35466
C          0.16327       -4.10689       -4.58855
C          0.57185       -5.15320       -5.32481
C         -0.31444       -6.19249       -5.76669
C         -0.50472       -7.33396       -5.02122
F          0.12635       -7.57478       -3.89956
S         -1.65775       -8.38435       -5.67872
C         -1.90650       -7.34265       -6.99503
F         -2.76454       -7.60537       -7.94890
C         -1.11331       -6.21477       -6.97121
C         -1.15287       -5.22853       -8.02143
C         -0.09673       -4.47992       -8.37464
C         -0.08845       -3.39124       -9.32554
C          1.01191       -2.69371       -9.65405
C          0.83908       -1.28003      -10.12663
O         -0.13442       -0.77767      -10.64648
C          2.06966       -0.58132       -9.69895
C          2.28366        0.78761       -9.72117
C          3.44417        1.28552       -9.11293
C          4.36856        0.38387       -8.50679
C          5.50263        0.89568       -7.86318
C          5.70889        2.26859       -7.80046
C          4.82001        3.15576       -8.39127
C          3.69466        2.66585       -9.05600
F          6.77771        2.74203       -7.14689
C          4.13044       -1.00287       -8.53146
C          2.98007       -1.48970       -9.13510
C          2.43174       -2.86003       -9.30572
C          3.15675       -4.00296       -9.37346
C          2.60015       -5.22910       -9.84371
N          2.16812       -6.23560      -10.23303
C          4.54491       -4.05704       -9.06455
N          5.66916       -4.10106       -8.78086
H          3.12248        2.12030        8.25668
H         -1.03212        2.52413        9.15411
H         -1.43915        3.62670        6.97534
H          3.96705        2.73998        6.04605
H         -0.56892        4.43408        4.76877
H          2.26389        4.91922        0.27767
H          2.88462        1.84633       -0.46826
H          4.84510        1.49118       -2.79055
H          4.60580       -0.84934       -3.60260
H          3.12706       -3.44184       -4.85672
H         -0.45077       -1.97393       -3.07701
H          1.03861        0.59860       -1.79019
H         -0.88547       -4.04168       -4.30622
H          1.61514       -5.25700       -5.61031
H         -2.09521       -5.11015       -8.55595
H          0.83446       -4.64668       -7.84668
H         -1.06570       -3.02651       -9.64716
H          1.53960        1.44639      -10.16087
H          6.22962        0.24087       -7.39027
H          5.00301        4.22353       -8.32287
H          3.00446        3.37343       -9.51154
H          4.83955       -1.66203       -8.04028
