90

C          5.93730       -6.91541        4.01085
C          4.92660       -7.78205        4.41203
F          5.25074       -8.92512        5.02958
C          3.59079       -7.49548        4.16461
C          3.24929       -6.31082        3.51377
C          4.24946       -5.42788        3.08042
C          5.62066       -5.74024        3.31979
C          6.64322       -4.90855        2.81882
C          6.31083       -3.82023        2.02614
C          4.95324       -3.49918        1.87567
C          3.91767       -4.26200        2.38865
C          4.79603       -2.27947        1.07671
O          3.74291       -1.74450        0.79610
C          6.18161       -1.83382        0.72846
C          7.09747       -2.91594        1.13090
C          8.26829       -3.26289        0.54835
C          8.72916       -2.66419       -0.66214
N          9.08244       -2.23732       -1.68022
C          9.08544       -4.32885        1.01201
N          9.76182       -5.19356        1.40320
C          6.30485       -0.57073        0.29197
C          7.53517        0.10957        0.07795
O          8.67337       -0.15647        0.80826
C          9.71456        0.56623        0.30543
C          9.24064        1.38565       -0.69344
C          7.85322        1.10033       -0.85564
C          6.93378        1.68921       -1.81565
O          5.73245        1.80785       -1.62798
O          7.51866        2.10763       -2.96755
C         11.05290        0.42069        0.77760
N         11.31530       -0.00221        2.05964
C         12.67062       -0.01046        2.22807
C         13.67571       -0.26047        3.18987
C         14.87409       -0.01257        2.53561
N         14.60842        0.33652        1.22694
C         13.25204        0.35920        1.06243
C         12.24656        0.63433        0.10649
C         16.23426       -0.04189        2.93320
C         16.58548       -0.39530        4.17969
C         17.95717       -0.41238        4.56568
O         18.86573        0.46121        4.01887
C         20.10089        0.29285        4.58549
C         19.98746       -0.72752        5.50972
C         18.63757       -1.20055        5.49471
C         18.11600       -2.28830        6.31071
O         18.58930       -2.59259        7.39683
O         17.08341       -2.98466        5.77258
C         21.22816        1.08919        4.25042
C         21.40667        1.63603        3.04005
C         22.36794        2.77864        2.91623
O         23.28910        3.06158        3.65193
C         21.90233        3.54939        1.74652
C         22.38287        4.77899        1.32905
C         21.73890        5.40802        0.25603
C         20.60034        4.79352       -0.34662
C         19.94710        5.45050       -1.39750
C         20.41808        6.67592       -1.85510
C         21.53417        7.27437       -1.28712
C         22.19186        6.64452       -0.22992
F         19.78478        7.28664       -2.86479
C         20.14557        3.53923        0.10460
C         20.82335        2.89651        1.12953
C         20.66810        1.56594        1.77358
C         20.21711        0.44590        1.15781
C         20.44003       -0.85832        1.69196
N         20.63637       -1.93033        2.09182
C         19.58593        0.47273       -0.11766
N         19.04136        0.50594       -1.14246
H          6.96848       -7.19226        4.21309
H          2.82440       -8.20003        4.47149
H          2.19924       -6.09910        3.32006
H          7.67563       -5.17299        3.02552
H          2.88618       -3.97221        2.20431
H          5.39506        0.00056        0.10579
H          9.83211        2.10756       -1.23992
H          8.43162        1.78016       -3.06792
H         10.64752       -0.23737        2.78225
H         13.54090       -0.56094        4.21941
H         15.26172        0.55998        0.48573
H         12.37487        0.94207       -0.92217
H         16.99272        0.22963        2.20293
H         15.83903       -0.67416        4.91792
H         20.79819       -1.12324        6.10958
H         16.89170       -2.73914        4.84937
H         21.90853        1.34071        5.06263
H         23.22825        5.23380        1.83846
H         19.07296        5.02025       -1.87886
H         21.88464        8.22801       -1.66939
H         23.06361        7.12689        0.20833
H         19.26655        3.10049       -0.35838
