128

C         13.61264      -15.39921        1.56632
C         13.08410      -16.63837        1.22527
F         13.57335      -17.29012        0.16260
C         12.07516      -17.22215        1.97947
C         11.57108      -16.55291        3.09518
C         12.09919      -15.31035        3.47690
C         13.14811      -14.72843        2.70363
C         13.75325      -13.52643        3.11240
C         13.37852      -12.95747        4.31925
C         12.29011      -13.50236        5.01973
C         11.63444      -14.65478        4.62276
C         12.00197      -12.70975        6.22912
O         11.11170      -12.90755        7.02902
C         13.00486      -11.59520        6.22367
C         13.99643      -11.91972        5.18914
C         15.32938      -11.67967        5.23895
C         15.94690      -11.23141        6.44266
N         16.45100      -10.94402        7.44729
C         16.22780      -12.03037        4.19114
N         16.95312      -12.30265        3.32739
C         12.71777      -10.47841        6.91167
C         13.40904       -9.17893        6.74438
S         13.18417       -8.56073        4.92257
C         13.36454       -7.12606        5.97842
C         12.56232       -7.92222        7.06598
N         12.84383       -7.05390        8.20902
C         12.47344       -5.72093        7.63413
C         12.48138       -5.91342        6.08171
C         13.10520       -4.78306        5.34000
C         12.44836       -4.06962        4.41774
C         12.99883       -2.93623        3.69464
C         13.96683       -2.17212        4.27023
C         14.24190       -0.86536        3.72705
C         14.96630        0.15675        4.25139
C         16.00555        0.16065        5.36162
C         17.39238        0.65802        4.84519
N         17.98440       -0.18606        3.80203
C         15.61493        0.96661        6.62826
N         14.37477        0.49722        7.24815
C         14.35802        1.31696        3.60417
C         14.09405        2.52571        4.11243
C         13.11623        3.49136        3.46777
C         12.65951        3.06848        2.07861
C         12.88156        1.83617        1.59011
C         13.56302        0.91658        2.45425
C         13.45059       -0.40801        2.56600
C         12.61710       -1.32412        1.84157
C         12.39164       -2.52322        2.40606
C         13.66319        4.88915        3.44035
C         14.87749        5.25313        3.88034
C         15.30551        6.64662        3.79580
S         14.80633        7.58472        5.38391
C         16.26013        8.37641        4.68751
C         16.73591        6.93308        4.29803
N         17.82112        7.25930        3.37482
C         18.54028        8.29986        4.17327
C         17.56566        8.75877        5.32597
C         17.60913       10.23993        5.58918
C         16.90568       10.93242        6.50029
C         15.97290       10.35876        7.44110
C         14.67589       10.65574        7.63145
C         13.86649        9.62784        8.37980
O         14.26573        8.74075        9.10620
C         12.46248        9.87545        8.01338
C         11.36964        9.11698        8.41200
C         10.09643        9.49886        7.97122
C          9.96389       10.61685        7.09859
C          8.68400       10.99683        6.66928
C          7.56222       10.29881        7.10337
C          7.68030        9.20880        7.95401
C          8.94523        8.80417        8.38198
F          6.34670       10.69090        6.69939
C         11.10524       11.34150        6.69247
C         12.36149       10.99662        7.17872
C         13.71847       11.62371        7.06238
C         13.94040       12.92418        6.76815
C         15.16717       13.58613        7.01884
N         16.14786       14.18220        7.24050
C         12.92241       13.79520        6.27369
N         12.11673       14.52160        5.86015
H         14.41386      -14.99073        0.95592
H         11.69423      -18.19922        1.69982
H         10.78542      -17.02522        3.68172
H         14.54523      -13.10177        2.50278
H         10.82399      -15.05350        5.22676
H         11.85272      -10.47487        7.57436
H         14.44880       -9.14379        7.07709
H         14.42156       -6.91774        6.21556
H         11.47858       -8.06053        6.90558
H         12.29282       -7.22446        9.04943
H         13.19049       -4.96453        7.97209
H         11.47144       -5.42008        7.96148
H         11.46192       -6.10815        5.71992
H         14.14395       -4.55904        5.57072
H         11.40736       -4.30142        4.19203
H         14.38311       -2.39314        5.24592
H         16.15918       -0.87474        5.69803
H         18.10564        0.69893        5.67815
H         17.30779        1.67789        4.45234
H         18.15584       -1.12379        4.16222
H         18.89318        0.18787        3.52964
H         15.53724        2.03307        6.41453
H         16.41387        0.90355        7.37551
H         13.64424        0.42402        6.53752
H         14.04592        1.19306        7.91691
H         14.45622        2.82823        5.07885
H         12.22418        3.50406        4.11064
H         12.09025        3.77946        1.48919
H         12.52726        1.51865        0.61822
H         12.15895       -1.02721        0.90706
H         11.72697       -3.22810        1.91515
H         12.98341        5.64425        3.05119
H         15.58672        4.54102        4.29054
H         14.98684        7.16170        2.88270
H         15.99450        9.03003        3.84101
H         17.07922        6.26212        5.10724
H         17.51242        7.66936        2.49198
H         18.82069        9.12201        3.50576
H         19.45719        7.87786        4.59862
H         17.78853        8.19480        6.24163
H         18.30035       10.81360        4.97202
H         17.11726       11.99241        6.56627
H         16.38182        9.50225        7.98402
H         11.51560        8.25777        9.06157
H          8.53844       11.84765        6.00857
H          6.78771        8.68478        8.28168
H          9.02390        7.94831        9.05031
H         10.96290       12.17337        6.01002
