117

C          4.36699        6.39236       11.27562
C          3.29948        7.22210       11.59022
F          3.33225        7.92785       12.72763
C          2.21597        7.35505       10.73213
C          2.18308        6.63156        9.53819
C          3.25555        5.80116        9.18017
C          4.37507        5.69822       10.06209
C          5.51735        4.98124        9.68308
C          5.57814        4.46915        8.39959
C          4.43056        4.47344        7.58686
C          3.26422        5.11854        7.95438
C          4.71317        3.81088        6.29344
O          3.92792        3.58293        5.39942
C          6.16580        3.45414        6.34623
C          6.72627        4.10443        7.53056
C          7.84376        4.87474        7.53882
C          8.36722        5.38105        6.30963
N          8.70352        5.87648        5.31871
C          8.39199        5.43503        8.72711
N          8.84684        5.84695        9.71131
C          6.71330        2.55984        5.50468
C          8.01962        1.94906        5.63849
C          8.34698        1.18989        6.71609
C          9.60327        0.50725        6.48401
C         10.18606       -0.47123        7.32586
N         10.69348       -1.27876        7.98328
C         10.07250        0.84596        5.27541
C          9.15782        1.82233        4.68468
C          9.37412        2.49111        3.53033
C         10.55840        2.43691        2.63203
C         10.31344        3.30798        1.62856
C          9.01934        3.93140        1.81171
C          8.44710        3.44899        2.92382
C          8.44940        4.86311        0.91473
N          7.98135        5.61369        0.15692
C         11.77386        1.65034        2.63105
C         12.73798        1.71987        3.56468
C         13.92118        0.90949        3.57254
S         14.47148        0.05426        2.18435
C         15.94172       -0.42959        2.92137
C         15.98581       -0.00855        4.23581
C         14.78082        0.67281        4.64248
C         14.52931        1.05592        6.08302
C         15.68731        0.73706        7.04601
C         16.58859       -0.42847        6.61594
C         15.85179       -1.74989        6.69650
O         16.24438       -2.69265        7.37586
C         17.11696       -0.20801        5.19970
C         16.89040       -1.15137        2.14704
C         16.86950       -2.50439        2.11311
C         17.72729       -2.97534        1.03959
C         18.03912       -4.33611        0.80449
N         18.31529       -5.44725        0.61891
C         18.21294       -1.92701        0.35115
C         17.75666       -0.71698        1.03175
C         18.11800        0.54190        0.72205
C         18.65053        1.05563       -0.55434
C         18.95528        2.35482       -0.33228
C         18.67273        2.70646        1.04624
C         18.13659        1.65082        1.67348
C         18.95654        3.96154        1.62856
N         19.20751        4.98745        2.12071
C         18.57888        0.50507       -1.89225
C         17.71645        0.95535       -2.82111
C         17.61937        0.43112       -4.16629
C         18.58135        0.41292       -5.09949
C         18.39100       -0.40293       -6.34503
O         17.35340       -0.82682       -6.80758
C         19.75180       -0.63448       -6.86969
C         20.09501       -1.35206       -8.00244
C         21.45375       -1.44018       -8.33732
C         22.43659       -0.87736       -7.46902
C         23.79049       -0.96060       -7.81268
C         24.16746       -1.56018       -9.00730
C         23.22247       -2.10347       -9.86691
C         21.86865       -2.05477       -9.52873
F         25.46358       -1.59739       -9.34171
C         22.05001       -0.19632       -6.30444
C         20.70206       -0.00338       -6.05229
C         19.97211        0.87657       -5.10459
C         20.43687        2.08040       -4.68886
C         19.55904        3.11050       -4.24802
N         18.85724        3.98226       -3.93404
C         21.80211        2.47052       -4.81252
N         22.92055        2.76676       -4.89544
H          5.20532        6.34054       11.96561
H          1.40872        8.03219       10.99284
H          1.33196        6.75679        8.87162
H          6.36778        4.92959       10.35701
H          2.42448        5.16029        7.26570
H          6.10455        2.16193        4.69179
H          7.73169        1.00050        7.58554
H         10.93687        0.40082        4.81698
H         10.96252        3.51655        0.78843
H          7.46468        3.71881        3.27387
H         11.86341        0.98926        1.77145
H         12.62404        2.42391        4.38585
H         13.63968        0.51071        6.42604
H         14.29370        2.12386        6.15360
H         15.27878        0.54767        8.04699
H         16.31309        1.63479        7.14023
H         17.44025       -0.49060        7.30524
H         14.93641       -1.84532        6.08595
H         17.76510       -1.03455        4.89089
H         17.72883        0.70520        5.18270
H         16.23826       -3.15585        2.70244
H         18.93635       -1.97348       -0.44601
H         19.25936        3.07852       -1.07463
H         17.89817        1.60094        2.72346
H         19.25839       -0.31236       -2.11493
H         16.99977        1.74136       -2.57753
H         16.64856       -0.01146       -4.40210
H         19.31908       -1.79041       -8.62415
H         24.56397       -0.53207       -7.18051
H         23.54540       -2.55436      -10.79993
H         21.13961       -2.47826      -10.21662
H         22.81636        0.20879       -5.65041
