136

C         10.84124        5.25272       14.49130
C         10.31705        6.03925       15.50911
F          9.93982        5.46033       16.65606
C         10.20276        7.41532       15.36631
C         10.61395        8.02548       14.18006
C         11.17105        7.26182       13.14219
C         11.29233        5.84875       13.30807
C         11.92852        5.06791       12.33114
C         12.52704        5.70161       11.25490
C         12.33357        7.08182       11.06645
C         11.65100        7.87179       11.97411
C         13.04223        7.55021        9.85457
O         13.01099        8.66103        9.37207
C         13.74638        6.34431        9.32023
C         13.58922        5.27192       10.30821
C         14.56518        4.40845       10.69053
C         15.91881        4.77283       10.49900
N         17.01968        5.16363       10.43282
C         14.30569        3.26063       11.48130
N         14.06499        2.29509       12.08604
C         14.16847        6.28526        8.04473
C         14.58142        5.08205        7.35393
C         15.84171        4.92994        6.88000
C         16.02077        3.59152        6.35514
C         17.25697        3.04061        5.93829
N         18.25826        2.56964        5.58855
C         14.86439        2.91718        6.45134
C         13.85691        3.82063        7.02007
C         12.54256        3.53514        7.16930
C         11.80855        2.32182        6.74093
C         10.53700        2.46498        7.18246
C         10.38437        3.73019        7.85997
C         11.54776        4.38786        7.82123
C          9.17487        4.20279        8.44365
N          8.19522        4.59675        8.93424
C         12.18059        1.17341        5.95324
C         12.66631        1.23293        4.70529
C         12.90764        0.05254        3.88711
C         14.15900       -0.16740        3.38877
C         14.28153       -1.03357        2.20926
C         15.27251       -0.93335        1.27994
C         16.77528       -1.15967        1.37947
C         17.55020        0.11315        1.79734
N         19.00593       -0.05568        1.91447
C         17.07793       -2.39278        2.29710
N         18.49847       -2.75245        2.38692
C         14.51800       -0.71299        0.04474
C         14.79569        0.12865       -0.96425
C         13.73666        0.51678       -1.99373
C         12.37817       -0.15997       -1.80425
C         12.10338       -0.97512       -0.77182
C         13.13108       -1.12869        0.21762
C         12.99890       -1.34332        1.53071
C         11.80628       -1.50196        2.31468
C         11.77547       -0.80850        3.46682
C         14.26309        0.25732       -3.37354
C         14.61979       -0.96160       -3.80827
C         15.10714       -1.20874       -5.13221
C         16.33830       -1.73040       -5.32056
C         16.62500       -1.80082       -6.73362
C         17.81271       -2.35596       -7.26760
N         18.77597       -2.83664       -7.69281
C         15.59210       -1.29999       -7.43240
C         14.52926       -0.95956       -6.47915
C         13.25527       -0.61634       -6.78156
C         12.62174       -0.41147       -8.10901
C         11.29556       -0.27525       -7.88016
C         11.02705       -0.30704       -6.46203
C         12.17698       -0.47823       -5.80151
C          9.74248       -0.21422       -5.87363
N          8.69365       -0.14978       -5.38606
C         13.17180       -0.41598       -9.44396
C         13.06134        0.53725      -10.38548
C         12.39520        1.81499      -10.23686
C         11.36522        2.26884      -10.96847
C         10.53925        3.38913      -10.40325
O         10.88565        4.26165       -9.63735
C          9.17196        3.14690      -10.90643
C          8.01679        3.78634      -10.48909
C          6.78823        3.31208      -10.96726
C          6.75806        2.18678      -11.84702
C          5.51959        1.69966      -12.28447
C          4.34056        2.31249      -11.87342
C          4.35974        3.41337      -11.02880
C          5.58102        3.91282      -10.57563
F          3.16621        1.83035      -12.30090
C          7.95816        1.57534      -12.26291
C          9.17181        2.07432      -11.81327
C         10.58751        1.69319      -12.07369
C         11.06178        1.20562      -13.24079
C         12.45551        1.20636      -13.55356
N         13.58019        1.22025      -13.82290
C         10.20413        0.77941      -14.30146
N          9.50417        0.42579      -15.15039
H         10.93020        4.18228       14.65751
H          9.80462        8.00608       16.18520
H         10.52836        9.10642       14.08844
H         12.01325        3.99675       12.48694
H         11.57131        8.94291       11.81095
H         14.14900        7.18741        7.43141
H         16.64268        5.65472        6.93680
H         14.74177        1.87366        6.21237
H          9.70974        1.78914        7.01357
H         11.68510        5.37111        8.22803
H         11.99761        0.20031        6.40256
H         12.82865        2.18718        4.20241
H         14.98160        0.50071        3.62114
H         17.12597       -1.44791        0.37733
H         17.18486        0.46591        2.76602
H         17.36663        0.90306        1.06387
H         19.43382        0.82431        2.20385
H         19.40777       -0.29406        1.00593
H         16.55306       -3.27704        1.91157
H         16.70339       -2.20901        3.31045
H         19.02543       -1.86733        2.46077
H         18.67357       -3.22742        3.27150
H         15.74380        0.65130       -1.01218
H         13.56095        1.59793       -1.89611
H         11.58936        0.06337       -2.51653
H         11.12408       -1.41436       -0.62347
H         10.98828       -2.12079        1.96867
H         10.88570       -0.82745        4.08835
H         14.33083        1.11886       -4.03438
H         14.56639       -1.81995       -3.13901
H         17.03747       -2.01158       -4.54428
H         15.54669       -1.23873       -8.50465
H         10.52000       -0.17058       -8.62382
H         12.25126       -0.56544       -4.73477
H         13.71280       -1.32279       -9.70757
H         13.56383        0.34998      -11.32935
H         12.69893        2.38589       -9.35628
H          8.07696        4.61470       -9.78699
H          5.45100        0.84125      -12.94701
H          3.42423        3.87248      -10.72465
H          5.58040        4.77365       -9.90900
H          7.90846        0.70669      -12.91624
