112

C         10.17355        9.96967        1.63958
C          9.70945       11.22776        1.28235
F         10.58561       12.15826        0.88338
C          8.35304       11.52527        1.29944
C          7.43431       10.55710        1.71010
C          7.86859        9.27151        2.06406
C          9.26520        8.97051        1.99693
C          9.72388        7.66426        2.20052
C          8.78691        6.66497        2.38582
C          7.43474        6.98931        2.58495
C          6.95269        8.27446        2.43223
C          6.65875        5.76622        2.86990
O          5.48835        5.69160        3.17407
C          7.64152        4.64474        2.75225
C          8.88657        5.18887        2.19480
C          9.36571        4.81671        0.97757
C          8.43571        4.48175       -0.05030
N          7.63036        4.33376       -0.88361
C         10.68247        5.17583        0.56189
N         11.76438        5.45971        0.25844
C          7.38325        3.42765        3.24935
C          8.30743        2.32511        3.36652
C          8.06235        1.13900        2.75719
C          9.12738        0.19794        3.03003
C          9.19360       -1.13168        2.55303
N          9.28119       -2.22085        2.15116
C         10.03099        0.78370        3.82795
C          9.62475        2.18030        4.04258
C         10.34817        3.09608        4.72729
C         11.77876        3.02661        5.11523
C         12.02201        4.08383        5.91702
C         10.83194        4.89557        6.01837
C          9.84908        4.35227        5.28379
C         10.76153        6.08515        6.76905
N         10.71263        7.06946        7.38637
C         12.87772        2.21741        4.65997
C         12.90003        1.64787        3.45235
C         13.99933        0.90698        2.98790
O         14.14839        0.73985        1.62868
C         15.28376        0.02786        1.48281
C         16.05599       -0.46364        0.43920
C         15.74203       -0.23966       -0.95008
O         16.42018       -0.63570       -1.88938
N         14.59381        0.46483       -1.19480
C         17.07212       -1.16749        1.10879
O         16.88180       -1.04079        2.49574
C         15.78182       -0.28275        2.66668
C         15.01346        0.26200        3.68978
C         18.12983       -1.99258        0.61307
C         17.92158       -2.73751       -0.49598
C         18.97458       -3.70064       -0.66561
C         19.03179       -4.62935       -1.72174
N         19.08356       -5.39751       -2.59533
C         19.82766       -3.61450        0.36630
C         19.41759       -2.48547        1.20647
C         20.08727       -2.02429        2.29030
C         21.28255       -2.58488        2.98906
C         21.35418       -1.91671        4.16469
C         20.37079       -0.86823        4.22300
C         19.67958       -0.85831        3.07813
C         20.23774        0.02735        5.30117
N         20.12481        0.75440        6.20466
C         22.26547       -3.58930        2.62425
C         23.32366       -3.93849        3.37477
C         24.29427       -4.91367        2.96875
C         25.03413       -5.73215        3.72859
C         26.15180       -6.39927        2.97523
O         26.41509       -6.32048        1.79208
C         26.90872       -7.16906        3.95712
C         27.99010       -7.98563        3.66030
C         28.51285       -8.77946        4.68184
C         27.92596       -8.72780        5.97603
C         28.41691       -9.56908        6.98187
C         29.47231      -10.43226        6.71415
C         30.06341      -10.47666        5.45902
C         29.58521       -9.65113        4.44176
F         29.92260      -11.23772        7.68437
C         26.84789       -7.85778        6.23544
C         26.33870       -7.04559        5.22845
C         25.15727       -6.11644        5.15430
C         24.36931       -5.81651        6.21916
C         23.08893       -5.20148        6.13408
N         22.03178       -4.72660        6.15459
C         24.73892       -6.10500        7.56775
N         25.04274       -6.31187        8.67043
H         11.24141        9.77482        1.58734
H          8.01860       12.50791        0.98235
H          6.37440       10.80435        1.70912
H         10.78313        7.43705        2.11313
H          5.88743        8.47147        2.51958
H          6.38865        3.22520        3.64931
H          7.19459        0.88939        2.15950
H         10.88674        0.28704        4.25807
H         12.98259        4.37309        6.32404
H          8.84960        4.74253        5.21104
H         13.76275        2.18667        5.29296
H         12.08184        1.74734        2.74808
H         13.99152        0.81191       -0.45708
H         14.32129        0.62203       -2.15433
H         15.14766        0.20402        4.75903
H         17.04867       -2.74445       -1.13206
H         20.65510       -4.28118        0.49474
H         22.07525       -2.05021        4.95670
H         18.96027       -0.10620        2.80753
H         22.15317       -4.08759        1.67314
H         23.53221       -3.43300        4.30877
H         24.47318       -4.90729        1.88859
H         28.38017       -8.02225        2.64634
H         27.98414       -9.57222        7.97895
H         30.88745      -11.15906        5.27789
H         30.04880       -9.70198        3.45853
H         26.41784       -7.88980        7.22946
