114

C          6.30148        7.90751       10.80458
C          5.48440        9.01668       10.97852
F          5.90694       10.02555       11.75105
C          4.25431        9.11102       10.34134
C          3.81725        8.06986        9.52047
C          4.63041        6.94882        9.30257
C          5.90394        6.87697        9.94673
C          6.78960        5.82994        9.65820
C          6.44296        4.92498        8.66639
C          5.16055        4.95918        8.10304
C          4.23524        5.93781        8.41460
C          5.04487        3.94906        7.04129
O          4.05617        3.67692        6.39481
C          6.41093        3.36449        6.89876
C          7.31425        3.99337        7.88318
C          8.49340        4.54223        7.49811
C          8.52619        5.44686        6.39371
N          8.49234        6.22150        5.53039
C          9.59500        4.53787        8.39452
N         10.48960        4.50699        9.13480
C          6.67604        2.42115        5.98509
C          7.95775        1.79186        5.78359
C          8.56503        1.06587        6.75217
C          9.78380        0.47987        6.24444
C         10.64640       -0.36329        6.98263
N         11.36641       -1.04216        7.59001
C          9.93584        0.82486        4.95850
C          8.83573        1.72354        4.58563
C          8.69978        2.37067        3.40499
C          9.60614        2.33089        2.23179
C          9.04164        3.09745        1.27203
C          7.80919        3.66494        1.76267
C          7.59570        3.25911        3.02695
C          6.97841        4.52680        1.00920
N          6.29969        5.22861        0.37998
C         10.86614        1.68201        2.00614
C         11.96179        1.92637        2.74338
C         13.11989        1.14459        2.55376
N         13.91945        0.91052        3.65365
C         14.98910        0.16658        3.24114
C         16.20515       -0.40210        3.69193
C         16.80401       -0.90040        2.54475
N         15.90251       -0.83533        1.50445
C         14.83895       -0.09696        1.92238
C         13.64958        0.49476        1.45199
C         18.09866       -1.42268        2.30688
C         18.69462       -1.27562        1.11275
C         20.03576       -1.69562        0.81685
C         20.96538       -0.78201        0.45690
C         22.25171       -1.42132        0.29940
C         23.43923       -0.74606       -0.06231
N         24.40936       -0.18958       -0.37089
C         22.13232       -2.73420        0.55761
C         20.71932       -3.01177        0.84702
C         20.18145       -4.23458        1.05587
C         20.88369       -5.53606        1.13523
C         19.94624       -6.45594        1.44779
C         18.64744       -5.83277        1.55029
C         18.76341       -4.52483        1.28276
C         17.45419       -6.52571        1.86490
N         16.47836       -7.09587        2.12492
C         22.26963       -5.88717        0.94080
C         23.02743       -6.42169        1.90925
C         24.43877       -6.64479        1.76505
C         25.15443       -7.77765        1.78952
C         26.64037       -7.57337        1.62774
O         27.25212       -6.52454        1.56675
C         27.23706       -8.90459        1.53842
C         28.59212       -9.18044        1.41103
C         28.98706      -10.52053        1.32399
C         27.99368      -11.53711        1.28733
C         28.38648      -12.87733        1.18594
C         29.73582      -13.20694        1.15801
C         30.71511      -12.22471        1.21066
C         30.34326      -10.88101        1.28199
F         30.09482      -14.49533        1.09328
C         26.62897      -11.20425        1.38492
C         26.24314       -9.88545        1.59029
C         24.92198       -9.23399        1.89177
C         23.83418       -9.91749        2.32962
C         22.60986       -9.32744        2.73939
N         21.57907       -8.95048        3.11565
C         23.82505      -11.33321        2.51444
N         23.80933      -12.48232        2.67657
H          7.26521        7.88954       11.30648
H          3.64978       10.00256       10.47472
H          2.85709        8.16561        9.01695
H          7.76835        5.80082       10.13052
H          3.27750        5.96430        7.90169
H          5.88056        2.07839        5.32180
H          8.19439        0.87901        7.75085
H         10.73100        0.46263        4.33314
H          9.45156        3.29779        0.28938
H          6.75087        3.54606        3.62625
H         10.87588        0.93902        1.21150
H         11.93504        2.65951        3.54574
H         13.79410        1.22440        4.60816
H         16.62793       -0.36911        4.68681
H         15.99958       -1.18562        0.56049
H         13.25101        0.48019        0.44736
H         18.62805       -1.87989        3.14105
H         18.20922       -0.72805        0.30694
H         20.80999        0.28145        0.35006
H         22.94544       -3.43922        0.53139
H         20.10230       -7.51524        1.58217
H         17.93985       -3.83419        1.24390
H         22.68968       -5.65672       -0.03584
H         22.61084       -6.57402        2.90358
H         24.97868       -5.70096        1.63159
H         29.31453       -8.36838        1.40516
H         27.65551      -13.68129        1.15500
H         31.76188      -12.51182        1.20010
H         31.12121      -10.12138        1.32338
H         25.90917      -12.01191        1.31303
