116

C          3.94256       11.40233       -1.20308
C          2.77982       12.00066       -0.74813
F          2.22834       12.99667       -1.45261
C          2.18483       11.60272        0.44721
C          2.76767       10.58625        1.20333
C          3.96261        9.98401        0.77836
C          4.55620       10.39880       -0.44919
C          5.76986        9.84218       -0.88429
C          6.43471        8.92400       -0.07596
C          5.81787        8.52777        1.12141
C          4.59461        9.01023        1.55650
C          6.65935        7.56367        1.84086
O          6.41423        7.05619        2.91538
C          7.83959        7.31354        0.95321
C          7.79224        8.30407       -0.14050
C          8.82027        8.76102       -0.89996
C         10.18042        8.44750       -0.60989
N         11.29213        8.22396       -0.36515
C          8.64380        9.63603       -2.00952
N          8.48391       10.31104       -2.94232
C          8.52691        6.18508        1.18076
C          9.52332        5.54832        0.35223
C          9.41887        5.43510       -0.98500
C         10.53779        4.68138       -1.51177
C         10.98498        4.81758       -2.84398
N         11.35355        5.04044       -3.92430
C         11.21081        4.10704       -0.49980
C         10.67156        4.68577        0.73440
C         11.29711        4.63901        1.92499
C         12.36112        3.73160        2.38302
C         12.84810        4.27552        3.52228
C         12.11375        5.47379        3.85985
C         11.15663        5.67848        2.95074
C         12.38513        6.28343        4.98915
N         12.60583        6.92752        5.92315
C         12.75363        2.38492        2.02404
C         13.83830        2.09143        1.29395
C         14.47345        0.80839        1.33375
S         14.56356       -0.09409       -0.13126
C         15.67473       -1.20374        0.52516
C         15.96645       -0.95411        1.85105
C         16.96077       -1.74867        2.63929
C         15.20543        0.17314        2.34660
C         15.34561        0.66040        3.70477
C         14.32619        0.93062        4.53696
C         14.36250        1.53674        5.84451
C         15.36411        1.56343        6.73602
C         15.28733        2.31652        7.96563
C         15.97261        3.47706        8.08364
C         15.81399        4.02211        9.41210
C         16.28014        5.30007        9.80533
N         16.65090        6.35455       10.11457
C         15.08637        3.17465       10.15750
C         14.65616        2.06619        9.29018
C         13.76160        1.12569        9.66686
C         13.34287        0.76239       11.04333
C         12.24529       -0.01560       10.92196
C         11.97004       -0.24871        9.51575
C         12.91059        0.35251        8.76764
C         10.89155       -1.03221        9.02698
N          9.99899       -1.66065        8.62171
C         14.07888        0.84615       12.28531
C         13.98969        1.84559       13.16854
C         14.89703        2.00195       14.28580
C         14.51445        2.06560       15.56643
C         15.31524        2.90442       16.51937
O         16.50435        3.13649       16.49601
C         14.30061        3.49877       17.42170
C         14.49168        4.52076       18.33221
C         13.35900        5.05736       18.96117
C         12.05549        4.58503       18.61196
C         10.93119        5.18222       19.19363
C         11.08949        6.18985       20.13716
C         12.35117        6.62563       20.51879
C         13.48454        6.06951       19.92403
F         10.00442        6.74385       20.69305
C         11.90242        3.52859       17.69905
C         13.03376        2.95905       17.14222
C         13.22037        1.83956       16.19770
C         12.53123        0.67490       16.20194
C         13.00305       -0.47421       15.49795
N         13.39607       -1.42078       14.95668
C         11.40051        0.47166       17.04494
N         10.48575        0.32580       17.74275
H          4.37529       11.75820       -2.13530
H          1.28031       12.09781        0.78706
H          2.29847       10.28923        2.13897
H          6.17648       10.17546       -1.82845
H          4.17277        8.66180        2.49566
H          8.29691        5.61588        2.08991
H          8.63424        5.83173       -1.61723
H         12.15585        3.59211       -0.59137
H         13.60254        3.84596        4.16562
H         10.50185        6.53459        2.92067
H         12.23706        1.60789        2.58268
H         14.33560        2.86295        0.71252
H         16.08777       -1.98313       -0.10244
H         17.48185       -2.47644        2.00744
H         16.46562       -2.29241        3.44897
H         17.72196       -1.08948        3.07070
H         16.36569        0.76948        4.06416
H         13.31234        0.75764        4.18833
H         13.42810        2.04080        6.11686
H         16.33135        1.11471        6.50900
H         16.57582        3.94587        7.31869
H         14.74358        3.38271       11.15539
H         11.73961       -0.54040       11.72088
H         12.94291        0.34118        7.69431
H         14.77461        0.02468       12.45681
H         13.30851        2.67746       12.99233
H         15.90245        2.33247       14.01618
H         15.49127        4.90167       18.52259
H          9.92357        4.87179       18.93038
H         12.44486        7.39945       21.27410
H         14.46660        6.42867       20.22563
H         10.90747        3.17972       17.43460
