128

C         18.56262        9.46218      -11.83015
C         19.03947       10.75591      -11.99429
F         20.24690       10.94478      -12.54158
C         18.29775       11.85302      -11.57719
C         17.04459       11.66094      -10.99276
C         16.54607       10.36605      -10.78951
C         17.32921        9.24736      -11.20569
C         16.90441        7.93969      -10.92939
C         15.76476        7.75431      -10.16537
C         14.95738        8.85852       -9.84596
C         15.31512       10.15867      -10.15178
C         13.74755        8.42179       -9.11684
O         12.83799        9.12380       -8.73097
C         13.86748        6.93259       -9.01766
C         15.23755        6.58949       -9.41519
C         16.01654        5.61514       -8.88639
C         15.63004        4.88217       -7.72540
N         15.37619        4.32030       -6.74323
C         17.31885        5.31555       -9.37091
N         18.36006        5.05118       -9.80480
C         12.76572        6.18487       -8.84443
C         12.73445        4.78215       -9.10234
S         11.64111        3.76579       -8.19803
C         12.11271        2.44245       -9.07596
C         13.08675        2.67977      -10.02316
C         13.44569        4.03581      -10.04768
C         13.38660        1.44192      -10.72691
S         14.46855        1.22068      -11.92560
C         12.49690        0.46917      -10.15214
C         11.75432        1.08236       -9.16683
O         10.86554        0.25498       -8.61789
C         11.02954       -0.96645       -9.26090
C         12.05423       -0.85187      -10.21123
C         10.23728       -2.10092       -8.96369
C          8.98800       -1.93602       -8.51006
C          8.10877       -3.04192       -8.18458
C          6.92566       -3.13408       -8.84643
C          5.94378       -4.10180       -8.40211
C          4.67280       -4.35112       -8.81366
C          3.95830       -3.87220      -10.06852
C          4.15239       -4.89514      -11.23582
N          3.63233       -6.23906      -10.96720
C          2.45802       -3.53504       -9.90537
N          2.20940       -2.46159       -8.93677
C          4.13572       -5.22245       -7.76299
C          2.88658       -5.44225       -7.32530
C          2.58444       -6.28651       -6.10449
C          3.79547       -6.99346       -5.52162
C          5.05149       -6.71839       -5.91069
C          5.22170       -5.71949       -6.92834
C          6.29081       -4.99499       -7.27266
C          7.60933       -4.96994       -6.70221
C          8.46083       -4.02340       -7.13458
C          1.46266       -7.22406       -6.43502
C          1.58712       -8.45177       -6.96229
C          0.43124       -9.22289       -7.24579
S          0.48470      -10.39869       -8.53018
C         -1.08638      -10.81710       -8.22484
C         -1.69616      -10.13231       -7.19334
C         -0.81909       -9.19538       -6.62460
C         -3.05306      -10.63210       -7.02798
S         -4.17461      -10.14966       -5.94986
C         -3.19245      -11.66256       -8.02189
C         -2.01783      -11.74415       -8.72475
O         -2.07220      -12.67211       -9.66933
C         -3.32670      -13.26287       -9.59613
C         -4.03781      -12.63888       -8.55771
C         -3.74451      -14.31721      -10.45813
C         -2.97761      -14.86075      -11.42070
C         -1.60772      -14.50578      -11.73873
C         -0.98077      -14.57156      -12.92004
C          0.21065      -13.66999      -13.10441
O          0.95601      -13.22019      -12.26660
C          0.22932      -13.35952      -14.54786
C          1.03372      -12.41846      -15.17168
C          0.84083      -12.18808      -16.53964
C         -0.17586      -12.90395      -17.23983
C         -0.36865      -12.65144      -18.60533
C          0.42454      -11.71814      -19.26410
C          1.41711      -11.01787      -18.59295
C          1.62481      -11.25047      -17.23280
F          0.22568      -11.49132      -20.56903
C         -0.97429      -13.85006      -16.56601
C         -0.75531      -14.09981      -15.21903
C         -1.37621      -15.03687      -14.24442
C         -1.93492      -16.24058      -14.54222
C         -2.22514      -17.22096      -13.54632
N         -2.48114      -18.03875      -12.76365
C         -2.20509      -16.64713      -15.86686
N         -2.44015      -16.96360      -16.95715
H         19.18689        8.63342      -12.15450
H         18.70529       12.85146      -11.69944
H         16.47854       12.53035      -10.66432
H         17.51543        7.10487      -11.25919
H         14.67974       10.98396       -9.84266
H         11.82241        6.67067       -8.59138
H         14.16643        4.45016      -10.73956
H         12.38440       -1.63490      -10.88025
H         10.65339       -3.08672       -9.13605
H          8.57230       -0.93959       -8.35477
H          6.64838       -2.42708       -9.62079
H          4.44534       -2.94606      -10.40526
H          5.21848       -4.97521      -11.48516
H          3.65664       -4.52236      -12.14168
H          4.00818       -6.57252      -10.07754
H          3.98608       -6.89033      -11.66826
H          1.89086       -4.42995       -9.63601
H          2.03547       -3.21094      -10.86151
H          2.68292       -2.67148       -8.05718
H          1.21251       -2.42876       -8.72750
H          2.02324       -4.96548       -7.76115
H          2.21455       -5.60951       -5.32199
H          3.62084       -7.72377       -4.73759
H          5.90970       -7.21595       -5.47813
H          7.88384       -5.67561       -5.92841
H          9.45175       -3.95891       -6.69421
H          0.47613       -6.79690       -6.26598
H          2.56692       -8.85779       -7.20470
H         -1.06055       -8.54410       -5.79435
H         -5.04018      -12.87763       -8.23439
H         -4.76135      -14.68517      -10.33800
H         -3.45200      -15.62774      -12.01760
H         -1.04928      -14.02522      -10.94134
H          1.77558      -11.86937      -14.59741
H         -1.13110      -13.17539      -19.17544
H          2.02151      -10.29479      -19.13188
H          2.40433      -10.69163      -16.71819
H         -1.75826      -14.35951      -17.11820
