102

C         14.68370       13.44610        4.81784
C         15.25957       14.36395        5.68672
F         14.48850       15.29210        6.26841
C         16.62344       14.34808        5.94320
C         17.42755       13.36561        5.35796
C         16.87580       12.40770        4.48957
C         15.48148       12.48607        4.18197
C         14.92599       11.64551        3.20739
C         15.75540       10.74583        2.56484
C         17.07272       10.53953        3.00252
C         17.66625       11.38840        3.91897
C         17.63933        9.34371        2.30808
O         18.76087        8.89561        2.40144
C         16.51467        8.83428        1.43692
C         15.61214        9.96687        1.31882
C         15.34339       10.59399        0.14691
C         16.04499       10.20765       -1.04587
N         16.69399        9.91545       -1.95129
C         14.61473       11.81321        0.09392
N         14.00693       12.80125        0.07351
C         16.35308        7.58319        0.98164
C         15.20691        7.04131        0.28389
C         15.25409        6.39684       -1.06263
N         14.17871        5.77609       -1.46082
C         13.32723        5.95062       -0.42090
C         13.91225        6.83469        0.56967
C         12.85002        7.07461        1.60327
S         12.57539        8.46184        2.47992
C         11.89241        5.94147        1.35689
C         12.17322        5.44507        0.02363
N         11.28418        4.48238       -0.32615
C         10.58754        4.32131        0.76503
C         10.97001        5.16143        1.93333
C         10.58835        4.96709        3.29299
S          8.96190        4.47643        3.68413
C          9.24865        4.31563        5.38734
C         10.56482        4.63601        5.65595
C         11.31989        4.99804        4.47272
C         12.68421        5.30973        4.51789
C         13.24250        5.34352        5.82176
C         14.68023        5.81251        5.95574
F         15.21947        6.18311        4.75085
F         14.82660        6.90477        6.75434
F         15.51783        4.85494        6.43771
C         12.49569        4.95061        6.98120
O         13.20655        4.98899        8.16081
C         12.82405        4.02989        9.14314
C         11.12567        4.57827        6.94367
C          8.20357        3.86681        6.22432
C          7.79188        2.47080        6.51260
N          6.74795        2.31441        7.27881
C          6.36722        3.59212        7.53816
C          7.27565        4.53599        6.90809
C          6.80188        5.92004        7.21314
S          7.53978        7.37773        6.92981
C          5.49492        5.64833        7.88507
C          5.36283        4.23392        8.12454
N          4.20210        3.96896        8.78089
C          3.63664        5.14280        8.86565
C          4.38592        6.27538        8.26121
C          3.98594        7.63582        8.13936
C          3.84775        8.35100        7.01097
C          3.89903        9.83855        7.18737
O          3.71817       10.47360        8.20563
C          4.28565       10.38107        5.87944
C          4.57575       11.71049        5.61839
C          4.90906       12.06660        4.30987
C          4.96895       11.06398        3.29980
C          5.27426       11.44351        1.98550
C          5.51138       12.77985        1.68039
C          5.46782       13.76023        2.66213
C          5.17278       13.40420        3.97786
F          5.77904       13.12737        0.41472
C          4.70922        9.71440        3.62001
C          4.34502        9.36455        4.91503
C          3.92806        8.07849        5.55896
C          3.48310        6.98382        4.89223
C          2.78264        5.93403        5.55369
N          2.17558        5.09361        6.07771
C          3.56777        6.82669        3.47088
N          3.64737        6.68659        2.33182
H         13.61465       13.50852        4.63198
H         17.05137       15.09959        6.59972
H         18.49413       13.36827        5.57367
H         13.87927       11.73744        2.92750
H         18.71912       11.27920        4.16313
H         17.15362        6.86342        1.17835
H         16.16055        6.50141       -1.67843
H          9.75510        3.60826        0.85317
H         13.30107        5.51974        3.65743
H         12.82786        3.01660        8.72616
H         11.84963        4.27512        9.57476
H         13.55899        4.06554        9.95256
H         10.56503        4.30151        7.82542
H          8.36046        1.63323        6.08403
H          2.65582        5.32759        9.33194
H          3.91391        8.15040        9.10073
H          4.52983       12.44402        6.41945
H          5.31680       10.71504        1.18007
H          5.65591       14.79586        2.39731
H          5.13790       14.18176        4.73898
H          4.79576        8.97855        2.82736
