106

C         16.47593        8.69681       -1.09902
C         17.33993        9.71564       -1.47290
F         16.83915       10.92083       -1.77238
C         18.70707        9.49507       -1.57651
C         19.23533        8.23961       -1.26436
C         18.38940        7.18315       -0.89471
C         16.97961        7.41757       -0.84985
C         16.09067        6.35672       -0.65863
C         16.60980        5.07757       -0.61469
C         17.98952        4.87046       -0.47606
C         18.89750        5.90087       -0.62135
C         18.25591        3.42780       -0.25851
O         19.32659        2.90290       -0.04243
C         16.90560        2.76152       -0.33480
C         16.00933        3.75827       -0.91683
C         15.24146        3.60148       -2.02537
C         15.26511        2.38296       -2.77069
N         15.34897        1.43040       -3.41652
C         14.59052        4.69776       -2.67349
N         14.06525        5.60538       -3.16674
C         16.69909        1.55806        0.21675
C         15.45308        0.88568        0.42718
C         15.16398       -0.52164        0.03133
N         14.00049       -0.99705        0.37148
C         13.44070        0.03341        1.05100
C         14.33454        1.17013        1.10267
C         13.69136        2.23174        1.95368
S         14.30466        3.69690        2.43453
C         12.36422        1.61220        2.30062
C         12.32873        0.28523        1.72824
N         11.18803       -0.35576        2.06871
C         10.57044        0.52329        2.79888
C         11.21528        1.86282        2.93848
C         10.67087        3.01981        3.70595
C          9.57586        2.53146        4.63995
O          9.74273        1.81354        5.61140
O          8.34426        2.91008        4.17387
C          8.46817        3.67085        2.95975
C          9.90634        4.14855        2.99373
C         10.38755        4.69716        1.65917
C         10.06597        3.84217        0.44112
C          8.65588        3.26356        0.40233
C          8.10277        2.80214        1.74360
O          6.67752        2.77440        1.55084
C          6.34275        3.40578        0.38178
O          5.23536        3.35903       -0.12453
C          7.54670        4.17510       -0.12739
C          7.48442        4.39669       -1.59759
C          8.16832        3.62805       -2.66740
N          7.94647        3.99014       -3.89779
C          7.07549        5.01922       -3.75890
C          6.81100        5.26450       -2.36118
C          5.82929        6.38922       -2.24958
S          5.26295        7.11461       -0.86853
C          5.53998        6.70003       -3.69055
C          6.35187        5.83384       -4.51879
N          6.09715        6.04640       -5.83568
C          5.17020        6.96260       -5.81024
C          4.75036        7.44305       -4.46652
C          3.67263        8.33604       -4.17778
C          3.71841        9.45237       -3.43693
C          2.44085        9.90466       -2.79490
O          1.30690        9.69593       -3.16645
C          2.85972       10.57026       -1.54571
C          2.03161       10.93336       -0.49593
C          2.62587       11.43331        0.66993
C          4.04607       11.54583        0.74817
C          4.62902       12.03002        1.92629
C          3.82863       12.39971        3.00089
C          2.44624       12.29469        2.93633
C          1.84458       11.80955        1.77426
F          4.40357       12.86400        4.11785
C          4.85302       11.16466       -0.34119
C          4.25871       10.68748       -1.49974
C          4.81116       10.18082       -2.78485
C          6.00060       10.51675       -3.33780
C          6.30808       10.20561       -4.69613
N          6.53846        9.96471       -5.80779
C          6.98161       11.27720       -2.65347
N          7.79155       11.88273       -2.07790
H         15.41001        8.90555       -1.06331
H         19.35224       10.30102       -1.91166
H         20.30784        8.08294       -1.36085
H         15.01784        6.52937       -0.67013
H         19.96411        5.69478       -0.60545
H         17.56448        1.01506        0.60345
H         15.92754       -1.10006       -0.51249
H          9.61180        0.31441        3.29748
H         11.46240        3.46137        4.32370
H          7.77931        4.52029        3.03875
H          9.94072        4.99558        3.69917
H         11.46311        4.89470        1.69970
H          9.91301        5.67676        1.51183
H         10.77439        3.00898        0.40431
H         10.26102        4.42704       -0.46570
H          8.69239        2.37290       -0.24116
H          8.39192        1.76492        1.92485
H          7.55970        5.13949        0.39462
H          8.83688        2.79704       -2.40459
H          4.70230        7.39269       -6.70936
H          2.69832        7.96496       -4.50515
H          0.95661       10.79670       -0.57866
H          5.70668       12.12813        2.02575
H          1.84544       12.58920        3.79111
H          0.75992       11.72582        1.74029
H          5.93197       11.22229       -0.23680
