96

C         10.97388       15.93052       -2.48891
C         11.72961       17.09597       -2.48894
F         11.58714       17.96975       -3.49372
C         12.64801       17.35599       -1.48095
C         12.80355       16.44516       -0.43386
C         12.06603       15.25058       -0.41206
C         11.15045       14.98208       -1.47497
C         10.48574       13.74778       -1.54703
C         10.79447       12.76902       -0.61803
C         11.60276       13.08645        0.48607
C         12.24266       14.30723        0.61226
C         11.69058       11.92823        1.40540
O         12.26769       11.88752        2.47062
C         10.86950       10.84610        0.76170
C         10.59778       11.29761       -0.60519
C         10.74531       10.54861       -1.72730
C         11.35080        9.25737       -1.66058
N         11.92767        8.25415       -1.59949
C         10.53065       11.06306       -3.03766
N         10.32214       11.49729       -4.09344
C         10.40719        9.80725        1.47498
C          9.37576        8.87560        1.10862
C          8.12126        9.16871        0.35591
N          7.21670        8.23340        0.31827
C          7.78451        7.24498        1.05536
C          9.10251        7.62885        1.50498
C          9.66717        6.51651        2.33548
S         11.18475        6.37808        2.99270
C          8.51827        5.55318        2.38649
C          7.43671        6.07653        1.58663
N          6.34641        5.27339        1.66646
C          6.74412        4.32842        2.47200
C          8.13815        4.41470        2.96830
C          8.78710        3.49375        3.93733
C          8.50480        3.90644        5.37594
N          8.17832        5.15896        5.71704
S          7.86509        5.10009        7.36436
N          8.17560        3.47444        7.66897
C          8.52605        2.96582        6.48294
C          8.84035        1.50069        6.31169
C          8.38553        1.10895        4.91872
C          8.38023        2.03060        3.79597
N          7.96054        1.49470        2.64516
S          7.52914       -0.08157        3.02121
N          7.91675       -0.11436        4.65275
C         10.28625        1.16418        6.50702
C         10.78892       -0.23501        6.38514
N         12.06671       -0.42077        6.54445
C         12.52669        0.82973        6.79478
C         11.43289        1.79826        6.78493
C         12.02461        3.15276        7.07302
S         11.40523        4.68095        7.19998
C         13.45777        2.83268        7.22221
C         13.68739        1.43231        7.03678
N         15.01699        1.16837        7.15963
C         15.53010        2.34702        7.39287
C         14.58779        3.48745        7.43626
C         14.83745        4.86434        7.68551
C         15.57484        5.71705        6.96573
C         15.99065        6.97938        7.66103
O         15.47717        7.51171        8.62200
C         17.25210        7.36663        7.01623
C         18.13825        8.32153        7.48862
C         19.36839        8.45216        6.83776
C         19.67287        7.61495        5.72352
C         20.91592        7.75060        5.09197
C         21.83574        8.68490        5.55499
C         21.55059        9.49740        6.64356
C         20.31747        9.38263        7.28474
F         23.02058        8.79854        4.94150
C         18.74106        6.65636        5.27545
C         17.51838        6.53648        5.91685
C         16.35839        5.61994        5.72783
C         16.00187        5.02689        4.56671
C         14.76622        4.33139        4.39000
N         13.78697        3.75135        4.22461
C         16.80566        5.10039        3.39497
N         17.46810        5.14631        2.44445
H         10.28416       15.76016       -3.31161
H         13.24415       18.26232       -1.52226
H         13.53316       16.66106        0.34436
H          9.80430       13.55370       -2.37109
H         12.90719       14.49005        1.45258
H         10.77043        9.69086        2.49853
H          7.98586       10.14939       -0.12021
H          6.09732        3.50072        2.80040
H          9.87397        3.51848        3.78426
H          8.24603        0.93700        7.04490
H         10.08375       -1.05287        6.16724
H         16.60087        2.53482        7.55957
H         14.38820        5.22840        8.61453
H         17.88267        8.91602        8.36157
H         21.18686        7.13589        4.23787
H         22.28988       10.21419        6.98725
H         20.10755       10.02273        8.13991
H         19.01960        6.00639        4.45032
