120

N          5.20301        7.70902        1.22349
C          6.16876        7.36461        1.76217
C          7.36538        6.90496        2.38488
C          8.57844        7.41363        1.82803
N          9.55622        7.83046        1.35496
C          7.36132        5.97583        3.37798
S          8.84883        5.29524        3.99357
C          7.96266        3.63751        4.51602
C          8.27441        2.67631        3.32798
C          9.58894        2.31884        2.96790
C          9.84769        1.46476        1.88571
C          8.80190        0.93609        1.13622
C          7.50226        1.29229        1.44588
C          7.26660        2.17301        2.50213
C          8.57019        3.25037        5.89552
C          8.53579        4.14726        6.99006
C          9.13340        3.83712        8.21900
C          9.79311        2.62647        8.38866
C          9.83326        1.71829        7.33830
C          9.21489        2.01837        6.11771
C          6.44859        4.11262        4.60590
C          5.35790        3.40243        5.28323
S          5.10371        3.66085        6.97139
C          3.80054        2.54684        7.09766
C          3.09895        2.40054        8.39240
C          2.79973        3.47491        9.21722
N          2.14467        3.39663       10.40422
C          1.74802        2.17418       10.78587
C          1.06646        2.02693       12.09177
S          0.18603        3.33618       12.75355
C         -0.26073        2.53013       14.24041
C         -1.10531        3.27917       15.21743
C         -1.47015        2.80190       16.44875
C         -0.86795        1.76845       17.21444
N         -0.45826        0.99942       17.98681
C         -2.43832        3.57252       17.23180
C         -3.33121        3.11024       18.14468
C         -3.56057        1.71200       18.37562
N         -3.77714        0.59183       18.53880
C         -4.14466        3.99269       18.90900
N         -4.80294        4.69639       19.55287
S         -2.28826        5.24932       16.81731
C         -1.65912        4.77848       14.98261
C         -2.96692        4.88735       14.14294
C         -3.69959        6.10232       14.11041
C         -4.90451        6.22687       13.41333
C         -5.42296        5.13443       12.73307
C         -4.73763        3.92275       12.75713
C         -3.52605        3.79754       13.45407
C         -0.53542        5.82811       14.72057
C          0.61347        5.86668       15.54558
C          1.59768        6.84994       15.39359
C          1.46346        7.82541       14.41366
C          0.36315        7.79584       13.56455
C         -0.61183        6.79841       13.70163
C          0.24032        1.21687       14.15577
C          0.97795        0.93146       12.93396
C          1.58609       -0.43287       12.69859
C          0.78388       -1.54892       13.37955
C         -0.61295       -1.73642       12.77925
O         -1.63176       -1.59523       13.46715
C         -0.68958       -2.15718       11.32279
F          0.53081       -2.36386       10.75682
F         -1.36822       -3.32727       11.17014
F         -1.32387       -1.23408       10.55280
C          0.71022       -1.23953       14.86618
C          0.07746        0.11308       15.16304
N          1.96666        1.05493       10.07106
C          2.63268        1.19977        8.89519
C          3.57804        1.92720        5.87511
C          4.36356        2.53413        4.81372
C          4.04979        2.15447        3.39187
C          2.58712        1.75687        3.18120
C          1.53123        2.85781        3.36935
O          0.41727        2.54574        3.81683
C          1.80902        4.28449        2.89466
F          3.05909        4.48761        2.39884
F          0.96050        4.65995        1.89872
F          1.65069        5.18006        3.90285
C          2.30538        0.55271        4.10482
C          2.55062        0.84728        5.59520
C          6.22905        5.34683        4.06225
C          5.05140        6.11688        4.30970
N          4.16162        6.82060        4.54497
H         10.44029        2.71022        3.52404
H         10.87320        1.21814        1.62290
H          8.99880        0.27210        0.29914
H          6.67015        0.91105        0.85851
H          6.25929        2.49825        2.63979
H          8.04365        5.11505        6.90730
H          9.09175        4.54755        9.04186
H         10.27343        2.39017        9.33508
H         10.35326        0.77107        7.46249
H          9.27796        1.26153        5.34060
H          3.07163        4.49084        8.94106
H         -3.33858        6.98115       14.64609
H         -5.43792        7.17489       13.41182
H         -6.36161        5.22471       12.19156
H         -5.15216        3.06448       12.23259
H         -3.05070        2.82050       13.44569
H          0.75333        5.13819       16.34101
H          2.46294        6.85976       16.05179
H          2.21586        8.60290       14.30809
H          0.25785        8.55464       12.79212
H         -1.43419        6.81396       12.99062
H          2.60614       -0.42046       13.10772
H          1.68184       -0.65648       11.63886
H          1.30898       -2.50515       13.26388
H          1.72835       -1.24002       15.28136
H          0.16814       -2.01809       15.41915
H          0.61702        0.43546       16.04486
H         -0.99309       -0.02832       15.35594
H          2.77830        0.26238        8.36629
H          4.65992        1.27958        3.13062
H          4.32782        2.95192        2.70678
H          2.47382        1.41935        2.14212
H          2.95255       -0.28129        3.79629
H          1.28047        0.18262        3.97749
H          2.87138       -0.08839        6.07370
H          1.60069        1.13632        6.05635
