115

C          5.63505       -1.39291        1.33254
C          6.25753       -2.13939        2.33525
C          5.61655       -3.24561        2.91139
C          4.31929       -3.60579        2.53196
C          3.67667       -2.83562        1.57527
C          4.34848       -1.74131        0.94473
C          3.46191       -1.19693       -0.14008
C          3.51867        0.02091       -0.71971
C          4.50937        0.98413       -0.41126
N          5.32350        1.77100       -0.15448
C          2.50467        0.45356       -1.63394
N          1.68508        0.79591       -2.37994
C          2.40302       -2.22473       -0.30684
C          2.30582       -2.90451        0.99596
C          1.15219       -3.15011        1.65865
C         -0.07871       -2.59456        1.18300
N         -1.04644       -2.06591        0.82624
C          1.10364       -3.84047        2.89869
N          1.05164       -4.46150        3.87719
C          1.93252       -2.67055       -1.49013
C          1.21862       -3.89334       -1.70868
S          0.07069       -3.94947       -2.99476
C         -0.25898       -5.61489       -2.78025
C          0.48023       -6.12016       -1.72805
C          1.32473       -5.14432       -1.12253
C         -1.17932       -6.33689       -3.63044
C         -1.92295       -5.87568       -4.70138
C         -2.70437       -6.90204       -5.31661
C         -2.52398       -8.12997       -4.71386
S         -1.46911       -8.00457       -3.37687
C         -3.11816       -9.38720       -5.08501
S         -2.30266      -10.87496       -4.83932
C         -3.59876      -11.80426       -5.46760
C         -4.61683      -10.96989       -5.89744
C         -4.34536       -9.58788       -5.68011
C         -3.48072      -13.22753       -5.45575
C         -4.45194      -14.00592       -5.95054
N         -4.52289      -15.38330       -5.97734
C         -5.52487      -16.15950       -6.49066
C         -6.66883      -15.67797       -7.10028
S         -7.70751      -16.91272       -7.66014
C         -6.62881      -18.11147       -7.11900
C         -5.54339      -17.59860       -6.43950
N         -4.58823      -18.36961       -5.84374
C         -4.72108      -19.64139       -5.31588
C         -5.82251      -20.37967       -5.10554
C         -5.74878      -21.71985       -4.64807
S         -6.97965      -22.82632       -5.10430
C         -6.27401      -24.11763       -4.22668
C         -5.09819      -23.71625       -3.62568
C         -4.80178      -22.34596       -3.86343
C         -6.88144      -25.42196       -4.13688
C         -6.24323      -26.63536       -3.96510
C         -7.15913      -27.71781       -3.78645
C         -8.47559      -27.30380       -3.82044
S         -8.57580      -25.62961       -4.17218
C         -9.65495      -28.10113       -3.59283
S        -11.07405      -27.40543       -2.94945
C        -11.91876      -28.89787       -2.89866
C        -11.12795      -29.90805       -3.41705
C         -9.82644      -29.45426       -3.80284
C        -13.25305      -28.96924       -2.40131
C        -13.69707      -28.11168       -1.47030
C        -15.01317      -28.16998       -0.89087
C        -15.91711      -27.17227       -0.89142
C        -16.97668      -27.06141        0.14126
C        -17.80690      -28.04266        0.56537
C        -17.75192      -29.36098        0.02108
N        -17.69474      -30.43215       -0.42197
C        -18.82977      -27.82107        1.52453
N        -19.65873      -27.64638        2.31555
C        -17.00805      -25.60603        0.49885
C        -16.29769      -24.87171       -0.49755
C        -16.15136      -23.49426       -0.38380
C        -16.72251      -22.84282        0.71123
C        -17.39819      -23.56516        1.70060
C        -17.53102      -24.95252        1.60828
C        -15.78194      -25.83505       -1.52002
C        -15.48843      -25.57262       -2.81600
C        -15.47955      -24.25623       -3.35270
N        -15.46739      -23.17643       -3.79299
C        -15.32842      -26.61838       -3.77497
N        -15.25701      -27.45616       -4.57470
H          6.18786       -0.57480        0.88380
H          7.26053       -1.86677        2.66095
H          6.14204       -3.82923        3.66567
H          3.85784       -4.47887        2.98260
H          2.17502       -2.12700       -2.40120
H          0.44539       -7.15803       -1.41428
H          2.00474       -5.39679       -0.31892
H         -1.90997       -4.84937       -5.04714
H         -3.34105       -6.74163       -6.17850
H         -5.54001      -11.32558       -6.33743
H         -5.03525       -8.79067       -5.93119
H         -2.59101      -13.66780       -5.01763
H         -5.32565      -13.53935       -6.39243
H         -3.73502      -15.83633       -5.52275
H         -6.97432      -14.65750       -7.26598
H         -6.85504      -19.14644       -7.32672
H         -3.62889      -18.03340       -5.83959
H         -3.74574      -20.04585       -5.05430
H         -6.81023      -19.98907       -5.32759
H         -4.48649      -24.36187       -3.00900
H         -3.93875      -21.83474       -3.45711
H         -5.16650      -26.74721       -3.93918
H         -6.85585      -28.73962       -3.59490
H        -11.45534      -30.93812       -3.50088
H         -9.06219      -30.09772       -4.22083
H        -13.90873      -29.74086       -2.79938
H        -13.04796      -27.34897       -1.04128
H        -15.13579      -29.04446       -0.25426
H        -15.59729      -22.89908       -1.10179
H        -16.62740      -21.76234        0.80433
H        -17.81509      -23.03973        2.55811
H        -18.02309      -25.47478        2.42150
