102

C         -1.84778       -2.46497       -1.92954
C         -1.58060       -3.76352       -2.36471
C         -2.57669       -4.74186       -2.34125
C         -3.86053       -4.44157       -1.87906
C         -4.14990       -3.14353       -1.47199
C         -3.13215       -2.14253       -1.49981
C         -3.71314       -0.84581       -1.01940
C         -3.20072        0.39931       -1.18216
C         -1.90726        0.65211       -1.71240
N         -0.83801        0.87297       -2.10729
C         -3.94881        1.56739       -0.84846
N         -4.55553        2.50997       -0.56959
C         -5.03628       -1.20261       -0.42860
C         -5.43313       -2.50484       -1.02114
C         -6.68221       -2.90530       -1.36643
C         -7.77457       -1.98342       -1.40269
N         -8.63781       -1.21687       -1.52673
C         -6.97105       -4.20181       -1.87711
N         -7.19751       -5.26824       -2.27747
C         -5.46987       -0.65568        0.72778
C         -6.52618       -1.14793        1.65266
N         -7.58377       -1.83442        1.31443
C         -8.30334       -1.90808        2.46126
C         -7.58635       -1.28934        3.54290
C         -8.38582       -1.41931        4.78624
O         -8.09957       -1.10211        5.91812
C         -9.62992       -2.05870        4.29237
C         -9.49255       -2.32384        2.88309
N        -10.62750       -2.89269        2.40256
C        -11.39085       -2.94904        3.45911
C        -10.82006       -2.44890        4.72900
C         -6.43891       -0.78387        3.10918
C         -5.41139       -0.09793        3.82230
C         -4.14102       -0.52198        3.85453
C         -3.11209        0.17343        4.58539
C         -1.95577        0.61337        4.04959
C         -1.61814        0.46971        2.59078
C         -0.90275        1.26710        4.91731
N         -1.06489        2.71123        4.92280
C         -2.13161        3.41170        5.43381
C         -2.26392        4.73898        5.55939
C         -3.56774        5.27396        6.02123
N         -4.63004        4.53290        6.23509
C         -5.57202        5.42583        6.61430
C         -5.03105        6.76047        6.61377
C         -6.12116        7.70106        6.99862
O         -6.09880        8.91039        7.06665
C         -7.26650        6.79140        7.24528
C         -6.85044        5.44090        6.97493
N         -7.88593        4.58475        7.16821
C         -8.84933        5.37840        7.54629
C         -8.53722        6.82238        7.62686
C         -3.74656        6.75114        6.25581
C         -2.81930        7.82417        6.03387
C         -2.84538        8.98294        6.71499
C         -1.95905       10.09838        6.44458
C         -2.32120       11.35213        6.09178
C         -1.38930       12.34552        5.49171
C         -0.15049       12.66986        5.93000
C          0.44702       12.01993        7.05093
N          0.93727       11.47668        7.94908
C          0.62132       13.72330        5.36066
N          1.25591       14.57823        4.89982
C         -2.18403       13.02687        4.41161
C         -3.56118       12.69040        4.56790
C         -4.50832       13.19442        3.68290
C         -4.09489       14.04764        2.65647
C         -2.74359       14.36363        2.49199
C         -1.77928       13.83985        3.35674
C         -3.69685       11.82068        5.78061
C         -4.79134       11.73032        6.57361
C         -6.09137       12.13523        6.16589
N         -7.15420       12.45129        5.82041
C         -4.67247       11.35144        7.94580
N         -4.54425       11.09842        9.06934
H         -1.03007       -1.75325       -1.94723
H         -0.58544       -4.01717       -2.72699
H         -2.35014       -5.74853       -2.68919
H         -4.59124       -5.24246       -1.86295
H         -4.95807        0.21078        1.13713
H        -12.42055       -3.33722        3.45406
H        -11.27132       -2.40793        5.69957
H         -5.70953        0.79984        4.36403
H         -3.83390       -1.42772        3.33578
H         -3.31734        0.34012        5.64331
H         -0.98203       -0.40719        2.43579
H         -1.09494        1.35455        2.21593
H         -2.51163        0.35268        1.96959
H          0.09417        1.01700        4.53469
H         -0.93977        0.87866        5.94252
H         -0.25887        3.25357        4.63092
H         -2.95484        2.76342        5.73425
H         -1.46557        5.41620        5.29688
H         -9.86363        5.03563        7.80009
H         -9.18144        7.63049        7.90964
H         -2.08645        7.68468        5.24175
H         -3.55444        9.10325        7.52693
H         -0.90927        9.80757        6.44857
H         -5.56431       12.95756        3.75050
H         -4.83244       14.46814        1.97483
H         -2.44038       15.02108        1.67870
H         -0.74097       14.08695        3.16457
