102

C         -5.25702      -13.00532        9.10803
C         -6.14253      -13.99002        8.66131
C         -6.24691      -14.30256        7.29746
C         -5.47912      -13.62623        6.34637
C         -4.59362      -12.65063        6.78343
C         -4.47483      -12.34757        8.17012
C         -3.49312      -11.23149        8.30221
C         -2.58454      -11.06743        9.28684
C         -2.61100      -11.83725       10.48334
N         -2.64195      -12.45579       11.46215
C         -1.45069      -10.22944        9.08452
N         -0.52078       -9.56841        8.86253
C         -3.47021      -10.57997        6.97182
C         -3.74515      -11.68399        6.01644
C         -3.12222      -11.91052        4.83605
C         -2.20891      -10.97019        4.27563
N         -1.46152      -10.19801        3.83520
C         -3.20329      -13.16928        4.17465
N         -3.22318      -14.21670        3.67401
C         -3.54037       -9.24074        6.81815
C         -3.92063       -8.58820        5.54530
N         -4.65155       -9.18729        4.63743
C         -4.67543       -8.28959        3.62767
C         -3.94898       -7.09644        3.98575
C         -3.94287       -6.19086        2.80274
O         -3.44347       -5.09520        2.67836
C         -4.70029       -6.97227        1.79025
C         -5.12066       -8.21404        2.38021
N         -5.79854       -8.96526        1.47548
C         -5.77574       -8.21384        0.40941
C         -5.07849       -6.91294        0.51960
C         -3.50301       -7.16863        5.23922
C         -2.73218       -6.25842        6.04784
C         -2.75949       -4.91270        5.95234
C         -1.94818       -4.05259        6.77405
S         -2.50965       -2.46145        7.17323
C         -1.09546       -2.02945        8.08874
C         -0.22470       -3.09993        8.06541
C         -0.69560       -4.24171        7.33117
O         -0.00244       -5.39126        7.08824
C          0.94754       -5.72753        8.09849
C          2.25178       -4.95092        7.95881
C          2.02855       -3.46263        7.79922
O          0.98154       -3.03376        8.66758
C         -0.98864       -0.67894        8.66623
N         -1.95422        0.20728        8.46236
C         -1.53585        1.34153        9.07930
C         -0.26199        1.12519        9.69473
C          0.21593        2.39373       10.30361
O          1.26104        2.63523       10.86723
C         -0.89792        3.31536       10.00572
C         -1.90923        2.60701        9.26092
N         -2.92130        3.45867        8.95074
C         -2.53515        4.58347        9.48986
C         -1.23617        4.58299       10.19476
C          0.16146       -0.12094        9.51181
C          1.44745       -0.62626        9.90033
C          2.03657       -0.42846       11.09221
C          3.34366       -0.97178       11.42067
C          4.46230       -0.28604       11.73627
C          5.83909       -0.86420       11.75532
C          6.22806       -2.01886       12.34431
C          5.29603       -2.87365       13.01321
N          4.53904       -3.56815       13.53910
C          7.58942       -2.42783       12.41544
N          8.69912       -2.76429       12.47163
C          6.71943        0.19628       11.15122
C          5.97339        1.40688       11.06449
C          6.51991        2.53591       10.46517
C          7.83968        2.48821       10.01398
C          8.58838        1.31219       10.12646
C          8.02524        0.15337       10.67230
C          4.63988        1.18270       11.70244
C          3.93683        2.10892       12.39708
C          4.26123        3.49314       12.37990
N          4.53556        4.62277       12.37278
C          2.92929        1.73662       13.33306
N          2.14144        1.43068       14.12942
H         -5.23112      -12.75817       10.16470
H         -6.77657      -14.51053        9.37676
H         -6.95418      -15.06511        6.97359
H         -5.61977      -13.85515        5.29468
H         -3.44988       -8.57150        7.66748
H         -6.23797       -8.49364       -0.54920
H         -4.91809       -6.17405       -0.23904
H         -2.09632       -6.72791        6.79505
H         -3.41155       -4.42963        5.22646
H          0.50793       -5.60974        9.09820
H          1.16956       -6.79417        7.98958
H          2.83141       -5.30519        7.10025
H          2.85441       -5.13102        8.85680
H          2.93858       -2.92684        8.09207
H          1.83191       -3.17346        6.75727
H         -3.11206        5.51963        9.44477
H         -0.73104        5.38963       10.68761
H          2.00540       -1.14488        9.13566
H          1.51635        0.12743       11.86558
H          3.38238       -2.05379       11.29298
H          5.95948        3.45580       10.33338
H          8.29032        3.37486        9.57113
H          9.61856        1.29815        9.77347
H          8.63610       -0.74245       10.69500
