104

C         -0.46173       -7.47840       -3.52560
C         -1.00243       -7.92840       -4.72914
C         -1.96928       -7.17284       -5.39798
C         -2.45975       -5.98426       -4.84556
C         -1.94891       -5.53865       -3.63127
C         -0.88731       -6.25846       -3.01039
C         -0.38449       -5.46841       -1.84257
C          0.86073       -5.51776       -1.31819
C          1.84241       -6.46770       -1.72652
N          2.64482       -7.23910       -2.03627
C          1.33368       -4.53923       -0.40381
N          1.76240       -3.73357        0.31286
C         -1.45201       -4.47903       -1.54949
C         -2.24693       -4.32306       -2.80356
C         -2.97593       -3.23837       -3.16078
C         -2.80405       -1.99018       -2.48912
N         -2.60499       -0.97859       -1.95433
C         -3.92605       -3.24629       -4.21741
N         -4.72753       -3.24822       -5.05808
C         -1.83204       -4.17700       -0.28685
C         -3.16304       -3.62621        0.08696
N         -4.26946       -3.86900       -0.57364
C         -5.20652       -3.17673        0.12152
C         -4.61220       -2.51530        1.25656
C         -5.68443       -1.78658        1.98856
O         -5.60960       -1.11934        2.99585
C         -6.89270       -2.09016        1.17674
C         -6.51068       -2.92932        0.07103
N         -7.59412       -3.22973       -0.68953
C         -8.56047       -2.60801       -0.07112
C         -8.19811       -1.84892        1.14635
C         -3.30715       -2.77072        1.31230
C         -2.28560       -2.37965        2.23384
C         -1.96624       -1.09897        2.48346
C         -0.88435       -0.60595        3.36720
C         -1.04941        0.63788        3.99527
C         -0.02245        1.20111        4.76115
N         -0.33160        2.42876        5.34364
C         -1.55673        2.77968        5.03887
S         -2.41581        1.70758        4.03247
C          1.19963        0.50364        4.87977
C          1.34963       -0.76533        4.30071
C          0.31148       -1.33788        3.54581
N          0.59057       -2.60706        3.04319
C          1.79763       -2.97955        3.39062
S          2.66715       -1.89256        4.36246
C          2.24309        1.12622        5.72341
C          3.57619        1.07766        5.55606
C          4.43928        1.72237        6.57274
N          4.09069        2.76394        7.29022
C          5.14107        2.94194        8.12877
C          6.14606        1.94383        7.87326
C          7.24423        2.13122        8.84742
O          8.23438        1.45617        8.99306
C          6.80325        3.30816        9.62756
C          5.51838        3.73045        9.13099
N          5.07501        4.79209        9.85372
C          6.03895        4.98442       10.71264
C          7.19892        4.07080       10.63828
C          5.80403        1.15489        6.85857
C          6.49504        0.02792        6.29518
C          6.88344       -0.07151        5.01336
C          7.59905       -1.20830        4.44971
C          8.80416       -1.71236        4.79180
C          9.45112       -2.94384        4.22099
C          8.86643       -4.01676        3.62618
C          7.46358       -4.11020        3.39587
N          6.32272       -4.19728        3.20842
C          9.59035       -5.19580        3.26463
N         10.16307       -6.15471        2.96751
C         10.89081       -2.88306        4.64175
C         11.03823       -1.90413        5.65207
C         12.29837       -1.62605        6.18730
C         13.41727       -2.28976        5.69423
C         13.28107       -3.22640        4.67247
C         12.02216       -3.52556        4.14113
C          9.74257       -1.15039        5.80876
C          9.83820        0.12913        6.23909
C         10.42164        0.41507        7.50579
N         10.95088        0.59419        8.52876
C          9.85423        1.17398        5.26811
N          9.96403        1.98909        4.44724
H          0.28047       -8.09797       -3.03398
H         -0.65657       -8.86722       -5.15785
H         -2.35045       -7.52021       -6.35677
H         -3.21802       -5.44554       -5.40229
H         -1.23229       -4.46429        0.57113
H         -9.61082       -2.62091       -0.40123
H         -8.83756       -1.28368        1.79440
H         -1.74499       -3.19144        2.71301
H         -2.53394       -0.31826        1.97744
H         -2.00180        3.69710        5.40126
H          2.22408       -3.92547        3.08322
H          1.84194        1.70530        6.55869
H          4.05590        0.56903        4.73362
H          6.03090        5.77435       11.47919
H          8.07693        4.04754       11.25278
H          6.74329       -0.76675        6.99830
H          6.62754        0.70742        4.29312
H          7.04324       -1.62948        3.61314
H         12.47128       -0.86949        6.94399
H         14.40258       -2.04352        6.08489
H         14.16836       -3.71242        4.27247
H         11.98495       -4.22756        3.31552
