106

C         -1.03679       -1.70266       -6.96873
C         -1.74102       -2.21574       -8.06407
C         -2.82179       -3.09067       -7.88339
C         -3.25064       -3.43895       -6.60292
C         -2.59035       -2.88641       -5.51658
C         -1.45440       -2.04423       -5.68975
C         -0.85724       -1.77498       -4.33486
C         -0.06290       -0.74379       -3.97373
C          0.31524        0.27833       -4.89022
N          0.60171        1.12115       -5.63489
C          0.34494       -0.55416       -2.62259
N          0.68298       -0.41654       -1.52121
C         -1.51039       -2.76152       -3.43242
C         -2.81846       -3.03498       -4.05627
C         -4.02228       -3.02303       -3.44023
C         -4.13281       -2.67015       -2.06291
N         -4.21811       -2.31119       -0.96248
C         -5.23902       -3.16194       -4.15807
N         -6.22977       -3.28621       -4.75515
C         -0.90837       -3.52190       -2.49248
C         -1.43727       -4.74677       -1.87924
C         -1.54907       -4.83437       -0.53805
C         -2.03836       -6.02643        0.11198
C         -2.53211       -7.19011       -0.63620
C         -2.47994       -7.30120       -1.96136
S         -1.79181       -6.07731       -2.99023
C         -2.96396       -8.13723        0.31671
C         -2.72805       -7.65335        1.57909
C         -3.09443       -8.54515        2.60078
C         -3.62107       -9.70289        2.04446
S         -3.64710       -9.66149        0.30660
C         -2.15353       -6.33566        1.43545
C         -1.75850       -5.50618        2.53906
C         -0.83916       -5.89605        3.43276
C         -0.50326       -5.06407        4.52120
N          0.78056       -5.15896        5.00346
C          0.89062       -4.30676        6.06255
C          1.80722       -3.86251        7.03828
C          1.09302       -2.96587        7.81777
N         -0.18021       -2.83077        7.30808
C         -0.29467       -3.67595        6.23954
C         -1.21059       -4.13089        5.26345
C          1.41896       -2.22635        8.97901
C          2.32411       -2.71028        9.84472
C          2.72784       -2.04393       11.06820
C          3.28993       -0.82083       11.01740
C          3.71868       -0.13192       12.20390
C          3.60845       -0.73815       13.53880
C          3.09212       -1.94182       13.78171
S          2.46988       -2.97982       12.53319
C          4.11688        0.20619       14.45099
C          4.50538        1.33635       13.77319
C          5.04919        2.31790       14.61786
C          5.03110        1.88173       15.93403
S          4.36313        0.29075       16.10114
C          4.23746        1.12226       12.36421
C          4.48000        2.07930       11.30167
C          4.42641        3.40797       11.47814
C          4.60305        4.42309       10.46585
C          5.64170        4.63134        9.63403
C          5.63911        5.62222        8.52040
C          5.18833        6.89863        8.57084
C          4.61644        7.44942        9.75471
N          4.14590        7.88582       10.72171
C          5.32202        7.81262        7.48609
N          5.42535        8.55743        6.60973
C          6.40405        4.96239        7.40888
C          7.03613        3.79401        7.92237
C          7.73550        2.94052        7.07671
C          7.87722        3.28913        5.73300
C          7.29399        4.45795        5.23501
C          6.53321        5.28756        6.06405
C          6.79146        3.73398        9.39770
C          7.63475        3.20641       10.31603
C          8.75904        2.40995        9.95415
N          9.66129        1.74981        9.65090
C          7.55270        3.53033       11.70136
N          7.55181        3.82205       12.82481
H         -0.17368       -1.07364       -7.15894
H         -1.43185       -1.95208       -9.07429
H         -3.32818       -3.50755       -8.75206
H         -4.06950       -4.14205       -6.48622
H          0.12724       -3.32789       -2.21223
H         -1.29036       -3.99002        0.09593
H         -2.83714       -8.20464       -2.44608
H         -2.98991       -8.38013        3.66619
H         -3.99248      -10.57754        2.56184
H         -2.23608       -4.53209        2.60480
H         -0.33721       -6.85611        3.32642
H          1.54016       -5.73720        4.66737
H          2.83643       -4.16604        7.16671
H         -0.94052       -2.25807        7.65245
H         -2.24448       -3.84378        5.12978
H          0.90954       -1.28543        9.17277
H          2.78241       -3.68376        9.67850
H          3.44079       -0.32976       10.06159
H          3.03235       -2.32075       14.79702
H          5.44101        3.28198       14.32329
H          5.38245        2.41514       16.80671
H          4.66912        1.66968       10.31256
H          4.14484        3.81567       12.44838
H          3.73547        5.08341       10.43748
H          8.17746        2.00891        7.41476
H          8.44778        2.64529        5.06593
H          7.42288        4.71721        4.18556
H          6.06607        6.15752        5.61692
