124

C        -13.13558        1.13395       -4.34214
C        -14.33346        0.62768       -4.85942
C        -14.82227       -0.62447       -4.46096
C        -14.14303       -1.38215       -3.50721
C        -12.98230       -0.85889       -2.95545
C        -12.44907        0.38781       -3.39646
C        -11.10617        0.58636       -2.74898
C        -10.40879        1.72681       -2.58044
C        -10.86742        2.98133       -3.05910
N        -11.25720        3.99362       -3.45634
C         -9.19516        1.76640       -1.83511
N         -8.19218        1.78641       -1.23587
C        -10.76081       -0.74966       -2.19587
C        -12.05517       -1.40800       -1.93013
C        -12.39812       -2.10513       -0.82426
C        -11.50619       -2.19782        0.28523
N        -10.81488       -2.20739        1.21754
C        -13.70520       -2.64286       -0.63432
N        -14.76533       -3.09606       -0.50394
C         -9.55623       -1.34518       -2.34659
C         -9.22157       -2.78140       -2.22818
C         -7.92321       -3.15122       -1.83219
C         -7.60124       -4.50176       -1.72385
C         -8.57255       -5.48560       -2.00814
C         -9.82683       -5.13956       -2.47222
C        -10.13035       -3.78747       -2.61452
C         -8.01221       -6.79634       -1.80186
C         -6.66861       -6.67067       -1.41366
C         -6.26748       -5.17790       -1.35081
C         -5.13587       -4.91914       -2.38398
C         -5.47257       -5.25134       -3.84213
C         -5.83078       -4.86887        0.10894
C         -5.33560       -3.45869        0.40969
C         -5.86870       -7.79331       -1.20364
C         -6.41277       -9.07079       -1.38650
C         -7.77904       -9.16808       -1.75930
C         -8.58244       -8.04191       -1.96330
C         -5.60352      -10.29007       -1.25270
O         -6.29848      -11.44328       -1.54049
C         -5.45286      -12.49095       -1.42914
C         -4.19968      -12.05275       -1.08766
C         -4.29576      -10.64229       -0.93691
S         -2.92756       -9.67254       -0.41950
C         -2.22196       -8.98646       -1.91784
C         -1.15421       -8.07043       -1.80706
C         -0.65525       -7.47302       -2.96282
C         -1.23552       -7.75621       -4.21450
C         -2.25467       -8.67901       -4.33948
C         -2.72548       -9.30993       -3.19092
C         -0.62367       -6.93817       -5.22924
C          0.35615       -6.11255       -4.64538
C          0.48860       -6.45719       -3.14977
C          0.32776       -5.20613       -2.24983
C         -1.01061       -4.48315       -2.37928
C          1.87516       -7.11656       -2.87611
C          2.16468       -8.41494       -3.63475
C          1.02710       -5.15922       -5.40744
C          0.71626       -5.04669       -6.77360
C         -0.17016       -5.97751       -7.35619
C         -0.88290       -6.88874       -6.58285
C          1.36156       -3.99226       -7.58528
C          0.83280       -3.29869       -8.61876
C          1.64551       -2.56310       -9.62146
C          2.62747       -1.66719       -9.36861
C          3.01531       -1.33850       -8.03619
N          3.33378       -1.08816       -6.94877
C          3.28971       -0.94269      -10.39691
N          3.83379       -0.35412      -11.23768
C          1.03746       -2.92779      -10.94584
C         -0.22103       -3.55802      -10.71175
C         -0.94391       -4.11294      -11.75976
C         -0.44202       -3.99191      -13.05670
C          0.77464       -3.34206      -13.29552
C          1.53039       -2.82160      -12.24029
C         -0.49134       -3.51211       -9.24547
C         -1.70040       -3.44662       -8.63998
C         -2.91635       -3.72395       -9.32444
N         -3.89893       -3.99753       -9.87874
C         -1.82791       -3.01388       -7.28623
N         -1.95019       -2.60025       -6.20891
H        -12.77178        2.08377       -4.72145
H        -14.88480        1.20305       -5.60192
H        -15.73771       -1.01160       -4.90548
H        -14.52665       -2.36267       -3.24087
H         -8.70590       -0.75951       -2.69313
H         -7.17847       -2.38990       -1.62219
H        -10.55366       -5.89536       -2.74955
H        -11.08979       -3.54078       -3.05842
H         -4.25835       -5.51825       -2.10669
H         -4.81754       -3.87135       -2.35074
H         -5.92945       -6.23871       -3.95763
H         -4.55842       -5.24997       -4.44578
H         -6.15205       -4.50703       -4.26826
H         -5.01917       -5.55172        0.39473
H         -6.66041       -5.08752        0.79521
H         -4.43730       -3.21105       -0.16224
H         -5.07748       -3.38361        1.47221
H         -6.09681       -2.70053        0.22153
H         -4.83074       -7.65182       -0.93192
H         -8.23657      -10.14367       -1.91700
H         -9.61930       -8.15732       -2.25981
H         -5.88673      -13.46216       -1.62260
H         -3.32788      -12.67592       -0.95148
H         -0.73649       -7.81532       -0.83668
H         -2.69803       -8.90632       -5.30214
H         -3.51182      -10.04665       -3.31833
H          1.12707       -4.48540       -2.46932
H          0.45711       -5.49170       -1.19760
H         -1.16866       -4.10440       -3.39294
H         -1.04161       -3.62896       -1.69567
H         -1.84616       -5.13863       -2.12082
H          1.97492       -7.33237       -1.80422
H          2.67312       -6.40258       -3.12173
H          1.50192       -9.22339       -3.31082
H          3.19252       -8.74003       -3.44140
H          2.06063       -8.29288       -4.71680
H          1.76144       -4.50499       -4.94480
H         -0.33728       -5.99958       -8.42895
H         -1.61961       -7.53992       -7.04013
H          2.40892       -3.85983       -7.31731
H         -1.87265       -4.65428      -11.61131
H         -0.99860       -4.41426      -13.89181
H          1.14699       -3.25988      -14.31538
H          2.48967       -2.37227      -12.47157
