112

C          1.16445       -3.86211       -1.37284
C          2.40416       -3.92837       -0.73306
C          2.72769       -5.01375        0.08949
C          1.81694       -6.05368        0.29462
C          0.59136       -6.01110       -0.35849
C          0.26640       -4.90859       -1.20145
C         -1.12009       -5.10887       -1.72209
C         -1.64788       -4.62331       -2.86985
C         -0.94647       -3.72068       -3.72051
N         -0.37792       -2.98259       -4.40812
C         -2.90387       -5.08867       -3.35028
N         -3.92850       -5.49459       -3.71815
C         -1.71950       -6.14877       -0.84299
C         -0.58232       -6.94405       -0.32310
C         -0.54098       -8.28215       -0.12508
C         -1.64394       -9.14170       -0.40209
N         -2.49201       -9.89498       -0.64877
C          0.65523       -8.96138        0.23438
N          1.63227       -9.51601        0.53188
C         -2.98736       -6.09835       -0.38824
C         -3.61143       -6.86641        0.67716
C         -3.13876       -6.80919        1.93850
C         -3.77622       -7.51398        3.02027
C         -4.94083       -8.38160        2.80469
C         -5.54512       -8.55844        1.63182
S         -5.06050       -7.73390        0.18206
C         -5.28271       -8.91881        4.06010
C         -4.42205       -8.43863        5.01772
C         -4.73496       -8.89294        6.31089
C         -5.85283       -9.71768        6.26534
S         -6.47827       -9.91743        4.65949
C         -3.48207       -7.55967        4.35408
C         -2.40870       -6.86818        5.02955
C         -2.27235       -5.52949        5.03462
C         -1.21493       -4.84428        5.71260
S          0.34873       -5.56943        5.77606
C          1.07945       -4.25017        6.58316
C          0.14499       -3.26321        6.83026
C         -1.18392       -3.58902        6.31768
C         -2.23643       -2.50426        6.51777
S         -3.95299       -2.88617        6.09518
C         -2.19602       -2.00240        7.98110
C         -0.78281       -1.66602        8.50157
C          0.33612       -1.92069        7.48777
C          2.47830       -4.34534        6.81681
C          3.08780       -3.80052        7.87823
C          4.52152       -3.85851        8.07376
C          5.13323       -5.05152        8.19246
C          6.54924       -5.15462        8.41187
C          7.39097       -3.96172        8.57427
C          6.96121       -2.70470        8.47932
S          5.30909       -2.29080        8.14398
C          8.69412       -4.42306        8.82762
C          8.70725       -5.79627        8.81846
C          9.99560       -6.32364        9.01554
C         10.90687       -5.29707        9.21936
S         10.18196       -3.72684        9.12253
C          7.35063       -6.25109        8.57308
C          6.91860       -7.63521        8.50580
C          7.53269       -8.63500        9.15588
C          7.18168      -10.03462        9.13201
C          6.02111      -10.62993        9.46364
C          5.73340      -12.07313        9.23385
C          6.54962      -13.12038        9.50577
C          7.85319      -12.93938       10.04850
N          8.92074      -12.77544       10.48334
C          6.14508      -14.47864        9.35327
N          5.82457      -15.58478        9.22896
C          4.29249      -12.11916        8.82181
C          3.70074      -10.84783        9.08111
C          2.38109      -10.60089        8.72468
C          1.62539      -11.63799        8.17626
C          2.19798      -12.89138        7.94050
C          3.54208      -13.13152        8.23657
C          4.72152       -9.97476        9.74025
C          4.46524       -8.97148       10.61330
C          3.15835       -8.44583       10.82198
N          2.09690       -8.00068       10.97062
C          5.46745       -8.44985       11.48181
N          6.25582       -8.04115       12.23063
H          0.93763       -2.98442       -1.96965
H          3.12334       -3.12138       -0.86509
H          3.69643       -5.04033        0.58551
H          2.09406       -6.85501        0.97125
H         -3.68007       -5.35968       -0.79520
H         -2.26998       -6.20403        2.17906
H         -6.40321       -9.21778        1.54939
H         -4.21888       -8.63930        7.22734
H         -6.35269      -10.21142        7.08763
H         -1.71895       -7.51494        5.56696
H         -3.00419       -4.92613        4.50612
H         -1.95385       -1.66959        5.86149
H         -4.17238       -3.74148        7.10190
H         -2.61472       -2.77016        8.64769
H         -2.83029       -1.11436        8.09795
H         -0.74683       -0.62057        8.82993
H         -0.59501       -2.27000        9.40020
H          1.29724       -1.80760        7.98748
H          0.31145       -1.14613        6.71085
H          3.07087       -4.89679        6.08842
H          2.54458       -3.26778        8.65143
H          4.55272       -5.96649        8.15284
H          7.65149       -1.87716        8.60804
H         10.27437       -7.36854        9.02182
H         11.96657       -5.38217        9.41399
H          6.03770       -7.84157        7.90196
H          8.40921       -8.43177        9.76906
H          8.02856      -10.63461        8.79689
H          1.90787       -9.63327        8.85078
H          0.57980      -11.46832        7.92637
H          1.59237      -13.68581        7.50804
H          3.95103      -14.10432        7.98962
