113

C         -2.05161       -1.88033        6.28851
C         -1.34724       -2.79575        7.07583
C         -1.61234       -4.16466        6.98820
C         -2.60210       -4.64323        6.12775
C         -3.34381       -3.73574        5.37862
C         -3.05763       -2.33986        5.44286
C         -3.96840       -1.60828        4.49109
C         -4.20575       -0.27662        4.43736
C         -3.55389        0.66813        5.28202
N         -3.02753        1.44717        5.96253
C         -5.17832        0.28157        3.56062
N         -5.96447        0.72812        2.83394
C         -4.64685       -2.67755        3.69545
C         -4.52827       -3.92824        4.48642
C         -5.46684       -4.89194        4.63350
C         -6.82038       -4.67275        4.24524
N         -7.94004       -4.46842        4.00683
C         -5.21764       -6.12290        5.30164
N         -5.00139       -7.14678        5.79699
C         -4.92333       -2.59979        2.37204
C         -5.20815       -3.72750        1.54198
S         -3.92537       -4.57228        0.76210
C         -4.97999       -5.74163        0.07647
C         -6.29593       -5.42681        0.35379
C         -6.42560       -4.25541        1.15754
C         -4.48656       -6.88333       -0.66179
C         -3.33244       -6.99013       -1.41490
C         -3.15998       -8.29196       -1.97764
C         -4.17742       -9.16075       -1.63144
S         -5.34547       -8.36942       -0.66050
C         -4.32203      -10.55100       -1.99355
S         -3.68055      -11.16043       -3.45795
C         -4.22800      -12.76056       -3.14596
C         -4.89823      -12.81763       -1.93870
C         -4.94730      -11.55403       -1.27780
C         -3.92906      -13.76776       -4.10317
C         -4.70243      -14.85153       -4.26278
C         -4.38057      -15.78803       -5.26488
S         -4.96855      -15.70209       -6.88683
C         -4.13891      -17.14921       -7.39165
C         -3.47801      -17.62971       -6.30949
C         -3.59971      -16.88310       -5.15384
N         -2.93071      -17.32120       -4.04628
C         -2.33283      -18.47226       -4.53661
N         -1.52955      -19.26241       -3.65257
O         -1.42184      -18.84526       -2.49147
O         -1.01923      -20.28384       -4.11734
C         -2.62598      -18.69612       -5.89616
C         -4.22917      -17.65171       -8.73348
S         -4.11428      -19.32223       -9.04652
C         -4.29799      -19.12893      -10.74200
C         -4.44806      -17.79076      -11.05768
C         -4.41694      -16.94535       -9.90433
C         -4.28317      -20.26009      -11.64607
C         -4.41734      -20.24838      -13.02279
C         -4.33963      -21.55515      -13.59611
C         -4.15343      -22.53942      -12.64693
S         -4.08525      -21.86925      -11.08161
C         -4.01990      -23.95983      -12.84467
S         -3.35831      -24.60355      -14.28475
C         -3.55786      -26.22737      -13.75813
C         -4.10066      -26.26001      -12.48735
C         -4.36249      -24.96567      -11.96341
C         -3.17709      -27.28242      -14.63027
C         -3.34617      -28.56713      -14.28519
C         -2.98954      -29.66232      -15.15354
C         -3.51936      -29.93133      -16.36225
C         -2.87686      -30.81193      -17.37641
C         -2.24717      -31.99101      -17.15645
C         -2.12082      -32.55893      -15.85314
N         -2.00437      -33.00985      -14.79209
C         -1.69886      -32.78080      -18.20283
N         -1.24288      -33.43102      -19.05129
C         -3.15953      -30.14711      -18.69670
C         -4.10220      -29.09677      -18.49697
C         -4.45854      -28.25395      -19.54434
C         -3.93344      -28.49520      -20.81337
C         -3.03784      -29.54679      -21.02313
C         -2.63039      -30.36326      -19.96390
C         -4.54068      -29.11848      -17.07046
C         -5.73664      -28.69382      -16.59242
C         -6.66149      -27.94946      -17.37575
N         -7.41176      -27.32743      -18.00882
C         -6.21461      -29.06600      -15.29872
N         -6.63938      -29.38889      -14.27073
H         -1.77636       -0.83540        6.37455
H         -0.57755       -2.44052        7.75922
H         -1.04423       -4.86355        7.59958
H         -2.75974       -5.71499        6.07923
H         -4.81053       -1.66716        1.82645
H         -7.14189       -6.00694        0.00215
H         -7.38228       -3.85769        1.47686
H         -2.63289       -6.17720       -1.56624
H         -2.31212       -8.57249       -2.59239
H         -5.31985      -13.72564       -1.52430
H         -5.41081      -11.40200       -0.31022
H         -3.05973      -13.61577       -4.74097
H         -5.60397      -15.01468       -3.67942
H         -2.88475      -16.90995       -3.12161
H         -2.26510      -19.52779       -6.48951
H         -4.57653      -17.41601      -12.06543
H         -4.51533      -15.86751       -9.94580
H         -4.56222      -19.35082      -13.61112
H         -4.42506      -21.75468      -14.65683
H         -4.31572      -27.17115      -11.94327
H         -4.79705      -24.79535      -10.98563
H         -2.74763      -27.02639      -15.59801
H         -3.74230      -28.85819      -13.31480
H         -2.15407      -30.23105      -14.74978
H         -5.12437      -27.40677      -19.41909
H         -4.22156      -27.85695      -21.64670
H         -2.64008      -29.72175      -22.02117
H         -1.89958      -31.13387      -20.17824
