114

C         -3.32466       -3.90708        7.63022
C         -1.96595       -3.82979        7.31383
C         -1.35329       -4.83245        6.56067
C         -2.08586       -5.93543        6.11659
C         -3.43065       -6.04404        6.46091
C         -4.06093       -5.01681        7.22183
C         -5.50956       -5.37106        7.42535
C         -6.37804       -4.80864        8.30005
C         -6.03889       -3.71369        9.14496
N         -5.77950       -2.81770        9.83425
C         -7.70367       -5.30357        8.48383
N         -8.78435       -5.69798        8.61428
C         -5.75836       -6.54954        6.53684
C         -4.42628       -7.14097        6.22801
C         -4.12058       -8.45050        6.07824
C         -5.03220       -9.47887        6.45542
N         -5.72353      -10.32720        6.83995
C         -2.82774       -8.91768        5.70581
N         -1.78965       -9.30766        5.37414
C         -6.91641       -6.74867        5.86723
C         -7.09536       -7.63280        4.76584
S         -6.83030       -7.07497        3.16135
C         -7.26649       -8.58073        2.46220
C         -7.63879       -9.48158        3.44133
C         -7.59599       -8.91913        4.74925
C         -7.21583       -8.80379        1.03528
C         -7.40737       -7.89116        0.01519
C         -7.26353       -8.47375       -1.28196
C         -6.94989       -9.81809       -1.22842
S         -6.88102      -10.35779        0.39798
C         -6.71841      -10.70499       -2.34509
S         -5.67347      -12.05763       -2.23034
C         -5.93502      -12.52735       -3.86131
C         -6.80016      -11.64629       -4.48188
C         -7.24318      -10.60130       -3.61860
C         -5.27150      -13.68874       -4.34186
C         -5.42099      -14.12870       -5.60011
C         -4.73878      -15.30156       -6.02333
O         -3.92635      -16.02675       -5.16055
C         -3.45599      -17.06801       -5.88224
C         -2.62603      -18.17292       -5.69434
C         -1.97580      -18.48563       -4.45250
O         -0.89738      -19.05577       -4.35031
N         -2.63949      -18.10500       -3.32025
C         -2.62039      -18.76687       -6.95743
O         -3.45130      -18.04724       -7.82994
C         -3.92908      -17.00510       -7.11837
C         -4.76650      -15.90166       -7.28179
C         -1.95437      -19.95593       -7.44161
S         -2.19403      -20.45049       -9.06348
C         -1.18752      -21.83178       -8.91005
C         -0.66496      -21.90165       -7.63481
C         -1.10675      -20.83190       -6.79928
C         -0.96548      -22.75459      -10.00232
C         -0.18937      -23.89977       -9.99689
C         -0.21202      -24.58427      -11.25055
C         -1.01182      -23.95588      -12.18421
S         -1.69160      -22.53155      -11.54078
C         -1.29734      -24.36495      -13.53543
S         -0.16740      -25.26564      -14.45396
C         -1.22587      -25.39813      -15.80308
C         -2.40020      -24.70967      -15.55657
C         -2.44080      -24.11250      -14.26770
C         -0.81227      -26.15079      -16.93955
C         -1.62039      -26.30822      -17.99860
C         -1.24768      -27.07197      -19.16650
C         -2.08864      -27.67181      -20.03160
C         -1.68922      -28.12320      -21.39359
C         -0.53632      -28.74344      -21.74220
C          0.48170      -29.05363      -20.79441
N          1.31826      -29.28537      -20.02140
C         -0.26311      -29.17600      -23.06983
N         -0.02670      -29.52251      -24.14870
C         -2.88191      -27.83202      -22.26128
C         -3.98646      -27.48587      -21.42938
C         -5.18786      -27.06107      -21.98575
C         -5.31878      -27.04339      -23.37435
C         -4.25057      -27.41749      -24.19442
C         -3.02189      -27.79375      -23.64388
C         -3.57333      -27.64518      -20.00256
C         -4.39040      -27.96653      -18.96976
C         -5.81117      -27.97031      -19.07940
N         -6.96857      -27.95175      -19.16123
C         -3.88421      -28.44366      -17.72201
N         -3.50258      -28.86297      -16.71315
H         -3.75105       -3.08226        8.18893
H         -1.38040       -2.97627        7.65191
H         -0.29471       -4.75334        6.31855
H         -1.56673       -6.67475        5.51692
H         -7.78963       -6.13248        6.06141
H         -7.95701      -10.49843        3.23975
H         -7.88665       -9.46277        5.64202
H         -7.64516       -6.84719        0.17929
H         -7.36649       -7.91734       -2.20602
H         -7.11077      -11.73858       -5.51501
H         -7.92825       -9.82224       -3.92911
H         -4.62493      -14.22614       -3.64800
H         -6.05442      -13.62063       -6.31799
H         -3.53137      -17.62826       -3.32970
H         -2.20368      -18.31339       -2.43284
H         -5.31058      -15.58118       -8.15837
H          0.00482      -22.67901       -7.29023
H         -0.78956      -20.74457       -5.77220
H          0.37105      -24.25130       -9.13880
H          0.32183      -25.50728      -11.44366
H         -3.21773      -24.64437      -16.26247
H         -3.29015      -23.55010      -13.89673
H          0.16301      -26.63611      -16.91442
H         -2.59791      -25.83946      -18.02271
H         -0.17901      -27.02919      -19.36661
H         -6.02914      -26.72836      -21.38680
H         -6.25933      -26.72937      -23.82338
H         -4.37173      -27.39709      -25.27606
H         -2.21424      -28.02664      -24.32799
