108

C        -16.81643      -11.97968        0.97348
C        -17.01862      -12.27012       -0.38009
C        -15.94448      -12.30666       -1.27759
C        -14.64056      -12.08207       -0.83614
C        -14.42938      -11.84023        0.51457
C        -15.52195      -11.76071        1.42697
C        -14.99525      -11.33793        2.77116
C        -15.59437      -11.46323        3.97746
C        -16.89439      -12.01741        4.13441
N        -17.95466      -12.47151        4.26609
C        -14.92602      -11.11284        5.18663
N        -14.36922      -10.80170        6.15562
C        -13.60256      -10.88211        2.50634
C        -13.17614      -11.58538        1.27488
C        -11.96595      -12.14486        1.04276
C        -10.94712      -12.15364        2.04769
N        -10.14808      -12.20177        2.88149
C        -11.66855      -12.86488       -0.14603
N        -11.41409      -13.43274       -1.12732
C        -13.02942       -9.79356        3.06026
C        -11.88153       -9.14492        2.52752
O        -11.54009       -9.11917        1.19202
C        -10.40480       -8.34666        1.08334
N        -10.00875       -7.89311        2.26063
C        -10.91720       -8.38168        3.15822
C         -9.78941       -8.10667       -0.16933
C         -8.69211       -7.34203       -0.25507
C         -8.00213       -7.07223       -1.50311
C         -7.52061       -8.12139       -2.21458
C         -6.69903       -7.90582       -3.39033
C         -6.04796       -8.75924       -4.23389
C         -6.00899      -10.29042       -4.34397
C         -6.22393      -11.01379       -2.98026
N         -6.15644      -12.47992       -2.96766
C         -7.04881      -10.83816       -5.36769
N         -6.91114      -10.36723       -6.74473
C         -5.22145       -7.86188       -5.07125
C         -4.19890       -8.10356       -5.91049
C         -3.42679       -6.98374       -6.61510
C         -3.95813       -5.58409       -6.31818
C         -4.97036       -5.34538       -5.46657
C         -5.55812       -6.46866       -4.78981
C         -6.42849       -6.49814       -3.77473
C         -7.04742       -5.40797       -3.05919
C         -7.78348       -5.69508       -1.97087
C         -3.41048       -7.21007       -8.10752
C         -2.44542       -7.87976       -8.75866
C         -2.51781       -8.07906      -10.16067
O         -3.15895       -7.23783      -11.04675
C         -2.96613       -7.77273      -12.30189
N         -2.27193       -8.89700      -12.25904
C         -1.99128       -9.09020      -10.93642
C         -3.48735       -7.14760      -13.46345
C         -3.29321       -7.69109      -14.67421
C         -3.79877       -7.10681      -15.89308
C         -5.08698       -6.85960      -16.19837
C         -5.50394       -5.91906      -17.26752
C         -5.02068       -5.85789      -18.52996
C         -3.99224       -6.73272      -18.99332
N         -3.14573       -7.43802      -19.36418
C         -5.54396       -4.96682      -19.50666
N         -5.96129       -4.23619      -20.30260
C         -6.65613       -5.15873      -16.67591
C         -7.08898       -5.82816      -15.49312
C         -8.08495       -5.28068      -14.69282
C         -8.68463       -4.08445      -15.08950
C         -8.27150       -3.43154      -16.25577
C         -7.24444       -3.95569      -17.04656
C         -6.26658       -7.06324      -15.32336
C         -6.63940       -8.20724      -14.70195
C         -7.84609       -8.31771      -13.95472
N         -8.83110       -8.39964      -13.33869
C         -5.91162       -9.42731      -14.86829
N         -5.36239      -10.43100      -15.03145
H        -17.68710      -11.91406        1.61649
H        -18.02794      -12.44922       -0.74712
H        -16.13013      -12.50443       -2.33191
H        -13.83415      -12.08387       -1.56243
H        -13.48845       -9.27926        3.89954
H        -10.83161       -8.16148        4.21398
H        -10.23408       -8.55403       -1.05184
H         -8.25603       -6.88626        0.63412
H         -7.67550       -9.11539       -1.83172
H         -5.00902      -10.58529       -4.68946
H         -7.22226      -10.78864       -2.60980
H         -5.48962      -10.64384       -2.25543
H         -6.72491      -12.88151       -3.71088
H         -6.59934      -12.81160       -2.10681
H         -8.06687      -10.62760       -5.01805
H         -6.95927      -11.92732       -5.42894
H         -7.17767       -9.38459       -6.79508
H         -7.57500      -10.87140       -7.33386
H         -3.84604       -9.11755       -6.06767
H         -2.39406       -7.00631       -6.23867
H         -3.47822       -4.74579       -6.81484
H         -5.32244       -4.34037       -5.26663
H         -6.90805       -4.38643       -3.38997
H         -8.25320       -4.89486       -1.40502
H         -4.25757       -6.81023       -8.66325
H         -1.61073       -8.32169       -8.22381
H         -1.43399       -9.95425      -10.60294
H         -4.03881       -6.22384      -13.32716
H         -2.69004       -8.59309      -14.79194
H         -2.98979       -6.79371      -16.55169
H         -8.40523       -5.73330      -13.76019
H         -9.47299       -3.64843      -14.47837
H         -8.74449       -2.49314      -16.54020
H         -6.92724       -3.38672      -17.91349
