103

C         -7.50843       -4.49263        6.35382
C         -6.60616       -3.78313        7.15265
C         -5.39544       -3.32149        6.62864
C         -5.08186       -3.51896        5.28482
C         -5.99203       -4.18219        4.47628
C         -7.20113       -4.70767        5.01542
C         -7.89920       -5.49865        3.94164
C         -9.18787       -5.91116        3.92756
C        -10.09176       -5.66656        4.99926
N        -10.83193       -5.47031        5.87420
C         -9.75075       -6.57309        2.79801
N        -10.20149       -7.12629        1.88704
C         -6.89398       -5.62288        2.84331
C         -5.96090       -4.49145        3.01996
C         -5.47187       -3.67971        2.05256
C         -5.91748       -3.78246        0.70318
N         -6.32907       -3.79088       -0.38579
C         -4.61665       -2.57845        2.33834
N         -3.88785       -1.70582        2.57508
C         -6.65869       -6.74058        2.12179
C         -5.47058       -7.08487        1.33780
C         -4.26222       -7.18303        1.92990
C         -3.08947       -7.60893        1.20787
C         -3.15013       -8.12173       -0.16358
C         -4.25399       -8.12262       -0.90648
S         -5.78091       -7.49240       -0.34619
C         -1.83864       -8.51453       -0.50954
C         -0.98829       -8.25158        0.53764
C          0.35352       -8.56621        0.25778
C          0.45801       -9.07310       -1.03182
S         -1.07318       -9.15566       -1.84801
C         -1.78477       -7.68307        1.60174
C         -1.24664       -7.25484        2.86374
C         -1.34419       -5.98910        3.29831
C         -0.76597       -5.54166        4.50474
S         -1.46132       -4.29347        5.44403
C         -0.22238       -4.31118        6.70687
C          0.66032       -5.27515        6.30756
C          0.38239       -5.90623        5.10594
N          1.28791       -6.81838        4.64332
C          2.19923       -6.84033        5.67502
N          3.29342       -7.75781        5.58781
O          3.33540       -8.46855        4.57675
O          4.08666       -7.77155        6.53240
C          1.88353       -5.91805        6.69015
C         -0.29057       -3.40261        7.83333
C          0.66906       -3.45606        8.78160
C          0.69335       -2.57165        9.91841
C         -0.28662       -1.49500       10.09350
C         -1.31273       -1.27148        9.27928
S         -1.64080       -2.24917        7.89354
C          0.07095       -0.80603       11.26423
C          1.18506       -1.38872       11.81743
C          1.58273       -0.77753       13.01640
C          0.73555        0.28438       13.30908
S         -0.52032        0.49180       12.13005
C          1.56781       -2.49343       10.96650
C          2.71170       -3.34323       11.20883
C          2.60524       -4.66506       11.41374
C          3.73626       -5.54244       11.64992
C          3.69241       -6.70880       12.32404
C          4.70152       -7.80129       12.23064
C          6.04941       -7.67872       12.25245
C          6.68625       -6.40732       12.34434
N          7.19366       -5.36584       12.40873
C          6.92451       -8.80096       12.26522
N          7.64102       -9.71413       12.28062
C          3.89400       -9.07106       12.25480
C          2.55829       -8.75418       12.63751
C          1.55897       -9.71925       12.61068
C          1.90078      -11.02616       12.26234
C          3.22004      -11.35396       11.92858
C          4.21992      -10.37590       11.90557
C          2.50282       -7.30421       12.97384
C          1.72775       -6.72882       13.92509
C          0.69277       -7.43980       14.59766
N         -0.15622       -8.01974       15.13467
C          1.99369       -5.41647       14.41580
N          2.22600       -4.35910       14.84355
H         -8.41323       -4.86153        6.82312
H         -6.83935       -3.59965        8.20017
H         -4.69283       -2.79982        7.27484
H         -4.13210       -3.15370        4.91263
H         -7.35650       -7.57673        2.16331
H         -4.14863       -7.00223        2.99543
H         -4.22720       -8.49553       -1.92561
H          1.20483       -8.43190        0.91273
H          1.35183       -9.39495       -1.55078
H         -0.73542       -8.02923        3.42659
H         -1.90499       -5.25853        2.71573
H          1.28542       -7.33447        3.77176
H          2.47810       -5.75795        7.57937
H          1.49005       -4.15602        8.72204
H         -2.00297       -0.45659        9.47184
H          2.41252       -1.07540       13.64434
H          0.77394        0.95185       14.15865
H          3.67422       -2.83995       11.27718
H          1.61791       -5.12327       11.38853
H          4.63796       -5.24148       11.11791
H          0.52105       -9.49173       12.83280
H          1.13360      -11.79837       12.24240
H          3.46618      -12.38056       11.66181
H          5.21397      -10.67347       11.59077
