134

C         -6.77069       -2.42712        9.47394
C         -7.17810       -3.48887       10.29037
C         -6.82814       -4.81126        9.98630
C         -6.02722       -5.09873        8.88224
C         -5.57196       -4.04198        8.10598
C         -5.97336       -2.69937        8.37157
C         -5.48233       -1.82447        7.24966
C         -5.33926       -0.48081        7.22855
C         -5.69100        0.33865        8.33293
N         -5.97781        1.00417        9.23922
C         -4.75885        0.19581        6.11720
N         -4.29815        0.74151        5.20252
C         -5.06481       -2.78101        6.19162
C         -4.70702       -4.02597        6.89821
C         -3.63535       -4.81592        6.66021
C         -2.66595       -4.46385        5.67519
N         -1.84217       -4.15654        4.91797
C         -3.34452       -5.96064        7.45385
N         -3.13739       -6.90636        8.09400
C         -5.39197       -2.65831        4.88748
C         -5.42203       -3.71037        3.84992
C         -5.80219       -5.03340        4.13219
C         -5.77804       -5.97442        3.11545
C         -5.47959       -5.59659        1.79240
C         -5.18490       -4.28168        1.48046
C         -5.14731       -3.34263        2.51633
C         -5.48387       -6.77076        0.95386
C         -5.75395       -7.90733        1.74729
C         -6.01312       -7.48696        3.19783
C         -5.02057       -8.18526        4.17397
C         -3.53520       -7.92362        3.92775
C         -7.46502       -7.82606        3.63341
C         -8.58021       -7.16760        2.82269
C         -5.67874       -9.18617        1.21475
C         -5.30457       -9.32470       -0.12860
C         -5.11047       -8.17658       -0.92944
C         -5.20185       -6.89347       -0.39297
C         -4.98431      -10.64327       -0.65159
O         -4.06676      -10.64377       -1.67164
C         -3.75065      -11.95040       -1.82144
C         -4.51485      -12.68784       -0.92880
N         -5.30512      -11.84134       -0.19390
C         -4.34507      -14.07490       -0.88657
C         -3.38692      -14.66420       -1.71762
C         -2.66169      -13.86560       -2.58353
C         -2.81188      -12.49689       -2.67405
O         -1.81256      -14.65666       -3.27833
C         -2.03861      -15.93294       -2.78883
N         -2.97390      -15.96015       -1.84735
C         -1.32079      -17.06199       -3.24923
C         -0.77751      -17.07153       -4.47406
C         -0.01304      -18.20051       -5.00875
C          0.77589      -19.01613       -4.18130
C          1.54984      -20.00713       -4.76440
C          1.55375      -20.18069       -6.16077
C          0.75942      -19.40287       -6.98518
C         -0.02032      -18.40507       -6.40285
C          2.51420      -21.19583       -6.50366
C          3.08464      -21.72629       -5.32891
C          2.52214      -21.00106       -4.09591
C          3.63580      -20.25500       -3.30887
C          4.40981      -19.19454       -4.09564
C          1.69420      -21.93652       -3.16977
C          2.43749      -23.11724       -2.55430
C          4.07463      -22.70015       -5.40351
C          4.50798      -23.13591       -6.66451
C          3.99472      -22.51231       -7.82069
C          2.96638      -21.57607       -7.75062
C          5.57298      -24.15606       -6.73689
C          5.76341      -25.10621       -7.67716
C          7.06824      -25.78624       -7.89964
C          7.85808      -26.36157       -6.96289
C          7.50524      -26.36580       -5.57929
N          7.21978      -26.35141       -4.45463
C          9.05501      -27.05221       -7.29251
N         10.03811      -27.61566       -7.55661
C          7.24033      -25.79336       -9.39297
C          5.99672      -25.44270       -9.99686
C          5.90505      -25.23499      -11.36758
C          7.04098      -25.43485      -12.15310
C          8.25430      -25.81786      -11.56995
C          8.36569      -25.98253      -10.18557
C          4.97868      -25.30141       -8.91615
C          3.64615      -25.52007       -9.01291
C          2.99015      -25.69845      -10.26267
N          2.45935      -25.80787      -11.28915
C          2.82664      -25.66182       -7.85342
N          2.15622      -25.82566       -6.92043
H         -7.11430       -1.42888        9.72129
H         -7.79693       -3.28839       11.16348
H         -7.18954       -5.62275       10.61567
H         -5.79939       -6.13445        8.65017
H         -5.78202       -1.71289        4.51217
H         -6.10976       -5.34504        5.12290
H         -4.95767       -3.98230        0.46247
H         -4.88890       -2.31380        2.26933
H         -5.17716       -9.27162        4.13508
H         -5.24469       -7.88464        5.20603
H         -3.23716       -8.15491        2.90163
H         -2.93292       -8.55008        4.59480
H         -3.27474       -6.88332        4.13467
H         -7.60785       -7.54164        4.68448
H         -7.61289       -8.91320        3.58718
H         -8.58545       -6.08160        2.95690
H         -9.55250       -7.54247        3.15967
H         -8.49536       -7.38688        1.75467
H         -5.82501      -10.06223        1.84165
H         -4.83140       -8.28316       -1.97639
H         -5.00147       -6.02691       -1.01300
H         -4.92673      -14.68293       -0.20311
H         -2.21751      -11.89066       -3.34536
H         -1.25851      -17.90755       -2.57549
H         -0.90200      -16.22226       -5.14455
H          0.81637      -18.86239       -3.10803
H          0.75127      -19.54467       -8.06028
H         -0.63021      -17.77723       -7.04981
H          4.36925      -20.97496       -2.92663
H          3.19863      -19.76401       -2.42946
H          4.93286      -19.62807       -4.95298
H          5.16328      -18.73059       -3.45036
H          3.75622      -18.39478       -4.45634
H          0.82803      -22.33713       -3.71417
H          1.27758      -21.34258       -2.34421
H          2.65250      -23.88343       -3.30438
H          1.81412      -23.59221       -1.78926
H          3.37336      -22.81609       -2.07712
H          4.51785      -23.10166       -4.49655
H          4.40074      -22.72935       -8.80371
H          2.57109      -21.12533       -8.65421
H          6.31319      -24.01329       -5.95059
H          4.99298      -24.89999      -11.85062
H          6.98612      -25.28072      -13.22943
H          9.12856      -25.96621      -12.20185
H          9.34058      -26.22738       -9.77871
