132

C         -1.03220       -3.30206      -13.83289
C         -1.81089       -3.44926      -14.98591
C         -3.20938       -3.52379      -14.91353
C         -3.86468       -3.41570      -13.68862
C         -3.09724       -3.21427      -12.55118
C         -1.67261       -3.19247      -12.60983
C         -1.13785       -3.16949      -11.20633
C          0.08302       -2.79672      -10.76497
C          1.09778       -2.34930      -11.65146
N          1.91996       -1.97404      -12.37821
C          0.40238       -2.74815       -9.37791
N          0.66179       -2.73250       -8.24469
C         -2.30601       -3.52037      -10.37081
C         -3.48686       -3.06686      -11.12645
C         -4.56986       -2.41745      -10.64572
C         -4.62863       -1.98403       -9.28912
N         -4.65341       -1.54096       -8.21722
C         -5.62791       -1.98442      -11.49171
N         -6.49008       -1.64456      -12.19050
C         -2.26712       -4.46599       -9.41388
C         -3.40768       -5.16079       -8.92127
S         -3.39749       -5.60135       -7.28795
C         -4.96163       -6.30687       -7.35089
C         -5.49728       -6.23485       -8.63324
C         -4.53600       -5.66988       -9.53966
O         -4.67483       -5.54072      -10.88161
C         -5.37815       -6.60543      -11.50156
C         -6.86892       -6.30408      -11.55009
C         -7.48223       -5.93477      -10.19749
C         -6.88238       -6.71038       -9.02355
C         -5.54546       -6.87514       -6.18353
C         -4.90866       -6.90331       -5.00214
C         -5.39626       -7.43920       -3.75046
C         -6.64697       -7.94292       -3.67428
C         -7.21375       -8.27605       -2.40007
C         -8.48469       -8.62634       -2.08389
C         -9.66333       -8.98285       -2.98235
C        -10.50343       -7.74261       -3.38397
N         -9.78953       -6.70071       -4.12691
C         -9.26193       -9.87142       -4.20144
N        -10.35966      -10.26084       -5.09080
C         -8.51485       -8.48908       -0.62493
C         -9.53797       -8.44852        0.23812
C         -9.32658       -8.12460        1.71214
C         -7.87065       -7.95021        2.13130
C         -6.84920       -8.00081        1.26370
C         -7.17401       -8.19212       -0.11876
C         -6.39995       -8.05170       -1.19589
C         -5.01696       -7.67242       -1.31038
C         -4.55408       -7.37364       -2.53656
C         -9.94076       -9.19855        2.54598
C        -11.18431       -9.14286        3.04132
C        -11.67926      -10.18673        3.86510
S        -13.34635      -10.50877        3.86027
C        -13.20914      -11.82116        4.97296
C        -11.88505      -12.00333        5.36895
C        -11.03531      -11.01592        4.76120
O         -9.69948      -10.87675        4.96268
C         -9.33593      -10.95321        6.33319
C         -8.95673      -12.38071        6.69535
C         -9.91265      -13.43989        6.13695
C        -11.39555      -13.08619        6.30384
C        -14.38505      -12.52240        5.38762
C        -15.43048      -12.68092        4.56005
C        -16.65715      -13.34414        4.92801
C        -17.85719      -13.16428        4.34363
C        -18.98066      -14.12277        4.47203
C        -19.43043      -14.69859        5.60562
C        -18.81877      -14.45229        6.87437
N        -18.30407      -14.25620        7.89619
C        -20.56841      -15.53971        5.63750
N        -21.49289      -16.23557        5.65149
C        -19.58622      -14.18564        3.09757
C        -19.08314      -13.09766        2.32587
C        -19.41447      -12.96812        0.98193
C        -20.27003      -13.90993        0.40774
C        -20.76848      -14.97699        1.16366
C        -20.42017      -15.12817        2.50910
C        -18.18096      -12.28431        3.19361
C        -17.93784      -10.95826        3.08089
C        -18.37097      -10.17992        1.97215
N        -18.71318       -9.54773        1.05993
C        -17.34738      -10.21417        4.13789
N        -16.89572       -9.59731        5.01537
H          0.04726       -3.30551      -13.92987
H         -1.32209       -3.53246      -15.95451
H         -3.78902       -3.67523      -15.82196
H         -4.94493       -3.51656      -13.65114
H         -1.31402       -4.82435       -9.02782
H         -5.15815       -7.57198      -11.02957
H         -4.99761       -6.67873      -12.52617
H         -7.38650       -7.17522      -11.96601
H         -7.04762       -5.46766      -12.23752
H         -8.56106       -6.12694      -10.24945
H         -7.37267       -4.85599      -10.02355
H         -6.85210       -7.78316       -9.25070
H         -7.56479       -6.58526       -8.17424
H         -6.53970       -7.29438       -6.29471
H         -3.92533       -6.45573       -4.89313
H         -7.30059       -7.95284       -4.52867
H        -10.33174       -9.62117       -2.38575
H        -10.92356       -7.28758       -2.47945
H        -11.36284       -8.05973       -3.98671
H         -8.99876       -6.37670       -3.56923
H        -10.40377       -5.89211       -4.22357
H         -8.78200      -10.78513       -3.82916
H         -8.53525       -9.38458       -4.84699
H        -11.10575      -10.70994       -4.56939
H        -10.01125      -10.93851       -5.76846
H        -10.56008       -8.57595       -0.10111
H         -9.82409       -7.16647        1.91336
H         -7.66226       -7.77969        3.18441
H         -5.81963       -7.87286        1.57575
H         -4.38607       -7.60239       -0.43401
H         -3.52548       -7.04598       -2.65748
H         -9.30536      -10.06041        2.74113
H        -11.83888       -8.30981        2.79738
H        -10.12233      -10.55675        6.98964
H         -8.46735      -10.29973        6.47396
H         -8.88865      -12.46391        7.78559
H         -7.95483      -12.59313        6.30074
H         -9.70385      -14.38681        6.64857
H         -9.68680      -13.61043        5.07545
H        -11.59433      -12.78730        7.33980
H        -11.97406      -13.99883        6.11346
H        -14.41997      -12.89760        6.40771
H        -15.37282      -12.31810        3.53691
H        -16.51165      -14.12413        5.67290
H        -19.01694      -12.18026        0.35063
H        -20.53909      -13.82329       -0.64371
H        -21.41977      -15.71004        0.69070
H        -20.79277      -15.99723        3.03995
