114

C        -11.56147        2.01104        0.71201
C        -12.79941        1.84989        1.34272
C        -13.55567        0.68992        1.15489
C        -13.10640       -0.31954        0.30513
C        -11.91097       -0.13487       -0.37858
C        -11.10827        1.02368       -0.15588
C         -9.83610        0.90240       -0.95737
C         -8.92282        1.87088       -1.21165
C         -9.02748        3.19074       -0.69584
N         -9.10613        4.27329       -0.27584
C         -7.80139        1.65235       -2.06299
N         -6.87780        1.46822       -2.74052
C         -9.84843       -0.49581       -1.48774
C        -11.25961       -0.94451       -1.44338
C        -11.89982       -1.70259       -2.36570
C        -11.31485       -1.95833       -3.64159
N        -10.88450       -2.09491       -4.70986
C        -13.19609       -2.24470       -2.15244
N        -14.22003       -2.74964       -1.92996
C         -8.76453       -1.29726       -1.58639
C         -8.80031       -2.72850       -1.68820
S         -7.54723       -3.54944       -2.54233
C         -8.18687       -5.10344       -2.20146
C         -9.35126       -5.00118       -1.46869
C         -9.66925       -3.65584       -1.13541
C         -7.54019       -6.31711       -2.64196
C         -6.19291       -6.53681       -2.85374
C         -5.91402       -7.87250       -3.27621
C         -7.05241       -8.65055       -3.37329
S         -8.44314       -7.74060       -2.95521
C         -7.15910      -10.03743       -3.76462
S         -6.04765      -10.75043       -4.85974
C         -6.81830      -12.27970       -4.78136
C         -7.91757      -12.24297       -3.95029
C         -8.11228      -10.95797       -3.36707
C         -6.31604      -13.36729       -5.53592
C         -5.39547      -14.18282       -5.00301
C         -4.82839      -15.29984       -5.70062
C         -3.59422      -15.80024       -5.51214
C         -3.37090      -16.96088       -6.37529
C         -4.49069      -17.13548       -7.09659
C         -5.50609      -16.07283       -6.79250
C         -6.73967      -16.91056       -6.46807
C         -6.85150      -17.95062       -7.59284
S         -5.13058      -18.48414       -7.94765
C         -2.25869      -17.84438       -6.37300
S         -1.27725      -17.98795       -4.97210
C         -0.19874      -19.09235       -5.70916
C         -0.58608      -19.36102       -7.00599
C         -1.76481      -18.65393       -7.38038
C          0.95334      -19.60919       -5.00976
C          2.15783      -20.00529       -5.55807
C          3.08160      -20.46626       -4.57190
C          2.56936      -20.40471       -3.29070
S          0.96385      -19.81829       -3.30723
C          3.22076      -20.76408       -2.05474
S          4.43682      -21.96940       -2.00151
C          4.66563      -21.79749       -0.30842
C          3.83078      -20.81863        0.19781
C          3.00080      -20.23164       -0.79918
C          5.63712      -22.60586        0.34121
C          5.50046      -22.95033        1.63000
C          6.46944      -23.74742        2.34641
C          7.75844      -23.44747        2.60464
C          8.77559      -24.44050        3.06902
C          8.58026      -25.48838        3.90901
C          7.32106      -25.76014        4.52016
N          6.29319      -25.99506        5.00521
C          9.60977      -26.39808        4.27335
N         10.43581      -27.16024        4.57078
C         10.07221      -23.99541        2.44458
C          9.87551      -22.73737        1.80600
C         10.89017      -22.16263        1.04592
C         12.13540      -22.78824        0.99205
C         12.35465      -23.98776        1.67122
C         11.32159      -24.60573        2.38215
C          8.49813      -22.25122        2.12151
C          8.11100      -20.95229        2.18553
C          8.91913      -19.87698        1.72025
N          9.56696      -18.99777        1.32328
C          6.90438      -20.54904        2.83248
N          5.94461      -20.19791        3.38140
H        -11.00431        2.91457        0.92910
H        -13.17629        2.63517        1.99600
H        -14.50888        0.57720        1.66823
H        -13.71385       -1.21175        0.20122
H         -7.76226       -0.88541       -1.48726
H         -9.93291       -5.85442       -1.13903
H        -10.51183       -3.40283       -0.50528
H         -5.42969       -5.78202       -2.70536
H         -4.91477       -8.23567       -3.48617
H         -8.55346      -13.10035       -3.76388
H         -8.91720      -10.73272       -2.67818
H         -6.67734      -13.48754       -6.55232
H         -5.01597      -13.99712       -3.99858
H         -2.85696      -15.43631       -4.81006
H         -5.67175      -15.44325       -7.67615
H         -7.64332      -16.29489       -6.41510
H         -6.64006      -17.41550       -5.49611
H         -7.26837      -17.49849       -8.49784
H         -7.46673      -18.80470       -7.29887
H         -0.06054      -20.03432       -7.67090
H         -2.22322      -18.72147       -8.35947
H          2.38570      -19.95652       -6.61605
H          4.08335      -20.80860       -4.80015
H          3.81802      -20.51747        1.23948
H          2.28849      -19.44077       -0.59461
H          6.49279      -22.95024       -0.23569
H          4.61130      -22.67916        2.19954
H          6.03511      -24.70271        2.63168
H         10.75760      -21.24441        0.48385
H         12.94344      -22.33597        0.42000
H         13.33690      -24.45555        1.63315
H         11.54704      -25.55275        2.85646
