108

C          3.26563      -11.47625        1.99188
C          2.92458      -11.83754        3.30146
C          1.62625      -11.63812        3.79158
C          0.63184      -11.10116        2.97404
C          0.95905      -10.78587        1.66356
C          2.28335      -10.94299        1.16940
C          2.33209      -10.37205       -0.22322
C          3.18262      -10.72847       -1.21080
C          4.18414      -11.72910       -1.02760
N          4.96739      -12.56622       -0.87819
C          3.03411      -10.22746       -2.53326
N          2.92291       -9.79925       -3.60417
C          1.08592       -9.55867       -0.34323
C          0.13342      -10.22138        0.56582
C         -1.10782      -10.63298        0.22694
C         -1.66151      -10.38083       -1.06414
N         -2.10158      -10.24142       -2.12922
C         -1.83256      -11.55550        1.02861
N         -2.40678      -12.33130        1.68210
C          0.93163       -8.33903       -0.89959
C         -0.18165       -7.40692       -0.65816
C         -0.41214       -6.91226        0.57965
C         -1.49371       -5.99308        0.85688
C         -2.50968       -5.66641       -0.15416
C         -2.42802       -6.02278       -1.43536
S         -1.08701       -6.92734       -2.08879
C         -3.44553       -4.81457        0.46986
C         -3.04686       -4.56250        1.75974
C         -3.89034       -3.66517        2.43686
C         -4.94203       -3.29173        1.61324
S         -4.84535       -4.01226        0.03613
C         -1.82083       -5.29768        1.99015
C         -0.99057       -5.14174        3.16337
C         -1.43327       -4.95728        4.41689
C         -0.58131       -4.60054        5.51136
S         -1.30026       -3.66548        6.78131
C          0.14565       -3.59090        7.66988
C          1.18037       -4.27493        7.06889
C          2.54246       -4.40968        7.67027
C          0.75961       -4.83494        5.80802
C          1.63493       -5.61803        4.98922
C          2.40611       -5.11635        4.01030
C          3.24817       -5.94733        3.18424
C          4.24428       -6.69492        3.68504
C          5.09920       -7.59408        2.92328
C          5.43337       -7.33585        1.64257
C          6.24536       -8.23339        0.86888
C          6.77964       -9.47976        1.42520
C          6.59930       -9.88536        2.68015
S          5.67979       -8.98284        3.84500
C          7.48471      -10.11098        0.38455
C          7.40997       -9.34644       -0.75631
C          8.07212       -9.93265       -1.84492
C          8.64727      -11.13721       -1.46172
S          8.35934      -11.52067        0.20384
C          6.64063       -8.16468       -0.43687
C          6.37624       -7.05797       -1.32654
C          5.76279       -7.15503       -2.51805
C          5.48795       -6.00919       -3.37403
C          6.40502       -5.18407       -3.92232
C          6.16450       -3.82307       -4.48136
C          5.09217       -3.39970       -5.19268
C          4.00174       -4.26013       -5.50792
N          3.09288       -4.94843       -5.72628
C          4.95105       -2.06432       -5.66633
N          4.82306       -0.97605       -6.04683
C          7.37289       -3.02083       -4.05278
C          8.28404       -3.88465       -3.37445
C          9.34894       -3.38247       -2.64248
C          9.56718       -2.00665       -2.65641
C          8.76045       -1.16497       -3.43188
C          7.66140       -1.66664       -4.13649
C          7.84586       -5.27601       -3.62433
C          8.65519       -6.33242       -3.86354
C         10.01166       -6.37709       -3.44019
N         11.09777       -6.43639       -3.03825
C          8.20227       -7.41556       -4.67213
N          7.85206       -8.26319       -5.38424
H          4.29312      -11.60815        1.67074
H          3.68223      -12.26291        3.95822
H          1.39319      -11.90378        4.82139
H         -0.36168      -10.93361        3.37827
H          1.70997       -7.91603       -1.53347
H          0.19819       -7.22012        1.42379
H         -3.18249       -5.69470       -2.14440
H         -3.76552       -3.29811        3.44826
H         -5.75927       -2.62267        1.84740
H          0.06329       -5.06992        2.93085
H         -2.50149       -5.00711        4.61910
H          0.16949       -3.05929        8.61185
H          2.60897       -3.87204        8.62227
H          3.30429       -4.00068        6.99971
H          2.77136       -5.46263        7.86513
H          1.64959       -6.68654        5.19385
H          2.36712       -4.05822        3.75730
H          3.02669       -5.92655        2.12023
H          4.43052       -6.66608        4.75925
H          5.07092       -6.44537        1.14019
H          7.03021      -10.82104        3.02305
H          8.13954       -9.54726       -2.85037
H          9.21859      -11.82366       -2.07192
H          6.69107       -6.08482       -0.94866
H          5.38648       -8.11040       -2.87783
H          4.42028       -5.82861       -3.48013
H          9.99712       -4.01733       -2.04657
H         10.37864       -1.58248       -2.06859
H          8.97381       -0.09796       -3.46425
H          7.06596       -0.96395       -4.70640
