142

C         -4.67732       -2.31345       -9.76061
C         -3.57242       -2.82044      -10.44806
C         -3.18732       -4.15933      -10.29823
C         -3.90429       -5.02309       -9.46536
C         -4.96174       -4.51320       -8.72931
C         -5.36108       -3.15843       -8.89721
C         -6.45015       -2.87491       -7.91424
C         -7.51086       -2.06147       -8.09907
C         -7.68029       -1.32532       -9.30727
N         -7.81422       -0.75306      -10.30830
C         -8.59378       -2.02582       -7.17549
N         -9.48462       -1.99463       -6.43408
C         -6.28309       -3.91809       -6.87546
C         -5.79338       -5.08336       -7.62223
C         -6.22442       -6.35377       -7.47781
C         -7.32413       -6.64489       -6.61424
N         -8.25087       -6.85709       -5.94784
C         -5.72456       -7.42111       -8.26985
N         -5.29209       -8.28705       -8.89875
C         -6.19157       -3.67104       -5.55045
C         -5.63477       -4.48733       -4.42556
C         -6.24347       -4.30091       -3.14775
N         -7.31050       -3.52751       -2.87579
S         -7.62109       -3.66846       -1.25638
N         -6.39249       -4.67962       -0.81112
C         -5.69830       -4.98133       -1.92314
C         -4.57092       -5.84371       -2.01769
C         -4.02076       -6.03519       -3.28103
C         -4.48700       -5.33156       -4.44128
N         -3.79163       -5.49440       -5.58123
C         -2.74032       -6.37129       -5.64810
C         -2.12665       -6.43926       -7.01537
C         -0.65879       -6.75994       -7.22370
C         -2.41679       -7.15059       -4.55329
C         -1.52349       -8.35603       -4.57182
C         -2.27204       -9.57776       -5.09045
N         -3.02870       -6.93626       -3.36900
C         -4.08384       -6.48466       -0.77933
C         -4.62629       -7.68826       -0.46573
C         -4.66101       -8.06510        0.93527
C         -5.41050       -9.00083        1.57603
C         -6.21157      -10.19160        1.07985
C         -7.30215       -9.78507        0.05634
N         -8.11018      -10.89108       -0.46662
C         -5.27400      -11.30122        0.52582
N         -4.33430      -11.84002        1.51554
C         -5.45726       -8.49887        2.95234
C         -6.42349       -8.62433        3.87560
C         -6.46643       -7.72378        5.10608
C         -5.17656       -6.94146        5.34878
C         -4.21476       -6.82245        4.41533
C         -4.45886       -7.45490        3.14840
C         -4.00819       -7.16831        1.92189
C         -3.12529       -6.12426        1.46938
C         -3.18053       -5.79547        0.16412
C         -6.82664       -8.53608        6.31317
C         -8.08728       -8.70477        6.74984
C         -8.48735       -9.52241        7.91138
C         -7.71990      -10.65393        8.30975
N         -6.64260      -11.17862        7.69812
S         -6.13845      -12.47539        8.58048
N         -7.25717      -12.44136        9.79819
C         -8.09346      -11.41848        9.53808
C         -9.22686      -11.03587       10.31168
C        -10.01713       -9.98088        9.82264
C         -9.65957       -9.24605        8.65233
N        -10.46559       -8.25067        8.22736
C        -11.63661       -7.96532        8.86804
C        -12.39939       -6.87909        8.14828
C        -13.80535       -6.42510        8.50907
C        -11.96817       -8.67748       10.01305
C        -13.22696       -8.50185       10.81603
C        -13.27773       -7.21610       11.62821
N        -11.14444       -9.66392       10.48339
C         -9.48793      -11.84292       11.52030
C         -8.94432      -11.59304       12.72649
C         -8.72504      -12.57622       13.81307
C         -9.64971      -13.39960       14.35288
C        -10.95723      -13.52126       13.80155
N        -12.01541      -13.64274       13.33821
C         -9.41493      -14.09820       15.57019
N         -9.22853      -14.63732       16.57933
C         -7.33923      -12.27576       14.32289
C         -6.93208      -11.00912       13.80780
C         -5.65769      -10.51134       14.03321
C         -4.78427      -11.26940       14.81391
C         -5.18208      -12.50836       15.34003
C         -6.45652      -13.02737       15.08441
C         -8.10221      -10.43940       13.08855
C         -8.57881       -9.19975       13.35219
C         -7.77608       -8.17284       13.92446
N         -7.12000       -7.34022       14.39466
C         -9.98809       -8.98895       13.40572
N        -11.12320       -8.87073       13.60905
H         -4.93987       -1.26701       -9.87889
H         -2.99140       -2.16482      -11.09404
H         -2.30233       -4.52390      -10.81707
H         -3.56922       -6.04807       -9.36732
H         -6.49853       -2.67966       -5.20733
H         -2.25666       -5.43891       -7.44340
H         -2.72304       -7.13872       -7.60844
H         -0.47038       -7.83410       -7.15484
H         -0.01658       -6.22578       -6.51845
H         -0.36663       -6.46842       -8.23951
H         -1.17927       -8.56741       -3.55122
H         -0.61194       -8.17730       -5.13813
H         -3.02369       -9.90651       -4.36307
H         -1.57995      -10.40908       -5.25469
H         -2.79180       -9.37483       -6.03302
H         -5.26337       -8.19975       -1.16971
H         -6.73932      -10.64018        1.93298
H         -6.86854       -9.29153       -0.81178
H         -7.97996       -9.06428        0.52788
H         -7.52531      -11.52063       -1.01569
H         -8.78874      -10.51489       -1.13017
H         -4.70951      -10.93107       -0.33768
H         -5.86896      -12.15194        0.17838
H         -3.70639      -11.10009        1.82911
H         -3.75140      -12.55218        1.07911
H         -7.28359       -9.26128        3.69690
H         -7.25376       -6.97484        4.93561
H         -5.06154       -6.43525        6.30307
H         -3.31058       -6.25058        4.58233
H         -2.46352       -5.62555        2.16622
H         -2.54100       -5.01193       -0.22958
H         -5.98703       -9.01432        6.80861
H         -8.90165       -8.19184        6.23757
H        -11.76097       -5.98520        8.15945
H        -12.45032       -7.19619        7.09717
H        -14.19960       -5.79282        7.70468
H        -13.81673       -5.80212        9.40531
H        -14.50325       -7.25463        8.62792
H        -14.09353       -8.59321       10.15674
H        -13.32859       -9.34488       11.51329
H        -12.77031       -7.32909       12.58654
H        -14.31778       -6.95428       11.84760
H        -12.79814       -6.37220       11.12810
H         -9.96037      -12.79767       11.29737
H         -5.32513       -9.56213       13.62421
H         -3.78166      -10.89755       15.01720
H         -4.48086      -13.08065       15.94534
H         -6.70791      -14.00757       15.47492
