113

C         -3.20725       -7.90813        0.56933
C         -3.62089       -9.24241        0.46670
C         -3.99745       -9.97412        1.59913
C         -4.05172       -9.36092        2.84710
C         -3.73513       -8.01362        2.92532
C         -3.22080       -7.28884        1.81252
C         -2.85801       -5.89143        2.26535
C         -2.42542       -4.86071        1.49695
C         -2.15922       -4.99627        0.10390
N         -1.93715       -5.10623       -1.02718
C         -2.26237       -3.53887        2.00635
N         -2.12438       -2.47246        2.44370
C         -3.16835       -5.85945        3.72686
C         -4.02265       -7.02704        4.00181
C         -5.33011       -6.89508        4.37587
C         -5.99203       -5.67128        4.05156
N         -6.48703       -4.70077        3.65119
C         -6.14589       -8.00417        4.70713
N         -6.81924       -8.90724        4.99048
C         -2.67118       -5.05334        4.68490
C         -2.97277       -5.15373        6.14787
N         -3.24376       -6.26381        6.80046
C         -3.50946       -5.83372        8.07003
C         -3.47132       -4.40027        8.12038
C         -3.78544       -3.93002        9.48990
O         -3.93492       -2.80448        9.90611
C         -3.85274       -5.20445       10.22997
C         -3.68095       -6.30067        9.30631
N         -3.67037       -7.47163        9.99452
C         -3.82008       -7.08491       11.23345
C         -3.97165       -5.63528       11.47744
C         -2.99429       -3.90775        6.98419
C         -2.62687       -2.55285        6.74178
C         -1.58922       -2.13895        6.00966
C         -1.28032       -0.77845        5.70300
S          0.37297       -0.45146        5.35266
C         -2.03506        0.38047        5.54693
C         -3.44032        0.58372        5.95820
O         -4.04614       -0.05544        6.80531
C         -4.05873        1.71492        5.30839
C         -5.37476        2.11830        5.39347
N         -5.51645        3.22737        4.60786
C         -6.75527        3.95925        4.42320
C         -7.53376        3.44117        3.22949
C         -4.31452        3.54888        4.03463
C         -3.37852        2.63981        4.48307
C         -1.95595        2.59922        4.20348
O         -1.41758        3.46950        3.53225
C         -1.29198        1.40267        4.77282
C          0.06715        1.11229        4.71466
C          1.21825        1.83110        4.27180
C          1.22711        2.58522        3.16751
C          2.43868        3.33696        2.79737
N          3.41528        3.63973        3.61769
C          4.27671        4.32829        2.82999
C          3.75922        4.42746        1.49005
C          4.74874        5.13558        0.64437
O          4.69059        5.36693       -0.54329
C          5.83606        5.43772        1.61249
C          5.46174        4.92420        2.90752
N          6.44295        5.17376        3.81287
C          7.34429        5.78897        3.09901
C          7.03895        5.99612        1.66558
C          2.57369        3.83875        1.38785
C          1.68912        3.70870        0.26488
C          1.18873        2.53616       -0.15418
C          0.26344        2.33546       -1.25341
C          0.39745        2.67897       -2.54838
C         -0.65150        2.55113       -3.59345
C         -1.38853        1.44778       -3.86301
C         -1.29942        0.27529       -3.05739
N         -1.21988       -0.66866       -2.38740
C         -2.18710        1.33161       -5.03578
N         -2.82530        1.23405       -6.00024
C         -0.49053        3.76199       -4.46139
C          0.77607        4.35160       -4.17702
C          1.16224        5.52763       -4.80541
C          0.30326        6.09580       -5.75081
C         -0.93681        5.51055       -6.03992
C         -1.34976        4.34930       -5.38168
C          1.46556        3.48949       -3.16877
C          2.79435        3.22803       -3.11892
C          3.74817        3.95448       -3.88435
N          4.51818        4.53454       -4.53147
C          3.28044        2.05652       -2.46422
N          3.64447        1.06541       -1.98201
H         -2.93260       -7.39944       -0.34604
H         -3.65461       -9.71762       -0.51211
H         -4.29222      -11.01672        1.49627
H         -4.38281       -9.92605        3.71301
H         -1.98797       -4.26000        4.43079
H         -3.82180       -7.76770       12.09647
H         -4.08215       -5.10770       12.40397
H         -3.21643       -1.85549        7.32078
H         -0.91212       -2.88036        5.59244
H         -6.20458        1.69477        5.94783
H         -6.49887        5.01637        4.29798
H         -7.33991        3.86009        5.34436
H         -6.95494        3.55036        2.30609
H         -8.46917        3.99602        3.11741
H         -7.77444        2.37887        3.34626
H         -4.20947        4.39630        3.36911
H          2.13539        1.72841        4.85345
H          0.37490        2.68205        2.51363
H          8.30216        6.15395        3.50015
H          7.64944        6.45405        0.91388
H          1.43823        4.63627       -0.24702
H          1.44246        1.61680        0.37708
H         -0.63488        1.81199       -0.92233
H          2.10320        6.02285       -4.58686
H          0.59823        7.00696       -6.26893
H         -1.58912        5.97196       -6.77980
H         -2.33321        3.94871       -5.60725
