115

C         -9.73390       -0.70309        4.30498
C        -10.98742       -1.19353        3.96077
C        -11.12135       -2.11970        2.91637
C         -9.99997       -2.63876        2.24960
C         -8.73972       -2.19082        2.61338
C         -8.63917       -1.16081        3.58652
C         -7.21841       -0.76229        3.67261
C         -6.78198        0.51964        3.70835
C         -7.69164        1.61662        3.77465
N         -8.45079        2.49656        3.79517
C         -5.41669        0.84372        3.47967
N         -4.30123        1.09691        3.28567
C         -6.46247       -1.95160        3.22401
C         -7.33909       -2.59901        2.21709
C         -6.94591       -3.20398        1.07254
C         -5.56633       -3.24343        0.67991
N         -4.45774       -3.19238        0.34780
C         -7.88104       -3.67772        0.10425
N         -8.64801       -4.03237       -0.68620
C         -5.42505       -2.43286        3.94502
C         -4.69805       -3.72900        3.86981
N         -5.08791       -4.77164        3.17286
C         -4.15814       -5.72334        3.47166
C         -3.25905       -5.23481        4.47955
C         -2.24139       -6.27084        4.78432
O         -1.38247       -6.27666        5.63733
C         -2.54767       -7.30084        3.77211
C         -3.71911       -6.90087        3.03104
N         -3.95916       -7.80373        2.04405
C         -2.98944       -8.66534        2.19295
C         -2.04379       -8.43469        3.30582
C         -3.45908       -3.94168        4.71484
C         -2.53007       -3.07263        5.38407
C         -2.58998       -1.74220        5.50372
C         -1.49043       -0.96978        5.95817
S         -0.98931        0.27505        4.88153
C          0.32750        0.69439        5.86998
C          0.19466        0.13289        7.12790
C         -0.70638       -0.98052        7.10349
S         -0.86218       -2.18307        8.39170
C          0.78577       -2.97983        8.34511
C          1.14333       -3.59870        7.00246
S          1.09524        0.70487        8.54743
C          0.52872        2.44505        8.55088
C          1.23039        3.25435        9.62321
C          1.32135        1.53906        5.32127
C          2.59195        1.11199        5.33264
C          3.72996        1.81392        4.80284
C          3.68997        3.01704        4.22444
C          4.86934        3.73931        3.71588
N          4.93534        5.04164        3.83340
C          6.12808        5.33924        3.26812
C          6.76492        4.14646        2.78020
C          8.06985        4.51889        2.17978
O          8.90191        3.79840        1.66747
C          8.09050        5.99098        2.34799
C          6.88188        6.40166        3.01364
N          6.87389        7.74932        3.18119
C          8.00911        8.11219        2.65451
C          8.86096        7.04128        2.09020
C          6.01074        3.07242        2.99348
C          6.21416        1.69650        2.64750
C          6.86177        1.27179        1.55091
C          7.07301       -0.13356        1.25965
C          8.26688       -0.75278        1.13676
C          8.48166       -2.05667        0.44209
C          7.65947       -3.13561        0.44015
C          6.43212       -3.16391        1.16438
N          5.42589       -3.18543        1.74374
C          7.95821       -4.34672       -0.24530
N          8.18171       -5.33898       -0.80568
C          9.84865       -1.94612       -0.18655
C         10.47909       -0.74659        0.25873
C         11.75799       -0.41700       -0.18062
C         12.43673       -1.29593       -1.02458
C         11.82817       -2.47450       -1.45688
C         10.52707       -2.79400       -1.05836
C          9.59060       -0.08847        1.26474
C         10.00044        0.72807        2.26495
C          9.28238        0.79539        3.49697
N          8.74974        0.77751        4.52772
C         11.22791        1.45043        2.24320
N         12.21517        2.05743        2.22147
H         -9.63633        0.01187        5.11722
H        -11.86860       -0.84720        4.49757
H        -12.11717       -2.45638        2.63342
H        -10.16008       -3.38126        1.47659
H         -5.15448       -1.85381        4.81563
H         -2.82780       -9.53281        1.53413
H         -1.17368       -8.99592        3.58423
H         -1.62354       -3.57312        5.72734
H         -3.40350       -1.15414        5.11410
H          0.78133       -3.76890        9.10465
H          1.55796       -2.26429        8.64027
H          0.39955       -4.33470        6.68536
H          2.10410       -4.12043        7.08007
H          1.25200       -2.84404        6.21736
H         -0.55437        2.46837        8.71152
H          0.73213        2.91148        7.58337
H          0.92600        2.93751       10.62503
H          0.96532        4.31235        9.51495
H          2.31947        3.17907        9.54051
H          1.01200        2.47260        4.86429
H          2.83008        0.13703        5.76205
H          4.66654        1.28721        4.95414
H          2.78097        3.60553        4.17642
H          8.35903        9.15477        2.60746
H          9.81719        7.12796        1.61599
H          5.86053        0.94163        3.34379
H          7.25263        1.97263        0.81528
H          6.14032       -0.63314        1.00727
H         12.27029        0.49097        0.11537
H         13.45216       -1.06397       -1.34047
H         12.37382       -3.15240       -2.11086
H         10.10443       -3.71201       -1.44777
