95

C         -7.53842        3.12936        1.83202
C         -7.38240        3.43900        3.18719
C         -6.50589        2.70567        3.99068
C         -5.75030        1.66619        3.44833
C         -5.85551        1.39273        2.08750
C         -6.77465        2.10901        1.27249
C         -6.75873        1.51357       -0.11003
C         -7.27102        2.06104       -1.23971
C         -7.94146        3.31969       -1.25836
N         -8.49158        4.33775       -1.28492
C         -7.16072        1.43839       -2.51656
N         -7.13033        0.91801       -3.55340
C         -5.96620        0.24236        0.01250
C         -5.12407        0.41541        1.22197
C         -3.81631        0.10742        1.38431
C         -3.03238       -0.44973        0.33880
N         -2.34639       -0.90764       -0.47463
C         -3.07331        0.44749        2.55506
N         -2.46436        0.69486        3.50879
C         -6.28814       -0.89590       -0.64269
C         -5.89963       -2.31364       -0.45544
C         -6.63476       -3.16818        0.37612
C         -7.68984       -2.73567        1.30946
O         -7.97560       -1.57925        1.55627
S         -8.45301       -4.09039        2.08591
C         -7.60001       -5.21133        1.05937
O         -7.97725       -6.35299        0.88614
C         -6.47215       -4.57387        0.34791
C         -5.43643       -5.22623       -0.37811
C         -4.65006       -4.32636       -1.14921
C         -4.94416       -2.94725       -1.25766
C         -4.20279       -2.29819       -2.35313
O         -4.41441       -1.16565       -2.74551
S         -3.05581       -3.38478       -3.08105
C         -3.41370       -4.61956       -1.90183
O         -2.66445       -5.55035       -1.67602
C         -5.19230       -6.71814       -0.32380
C         -4.67170       -7.47374       -1.39807
C         -4.29350       -8.82832       -1.25912
C         -4.60655       -9.45089       -0.06197
N         -5.16535       -8.80817        0.98283
C         -5.39643       -7.47685        0.83723
C         -3.39245       -9.45437       -2.25050
C         -3.43744      -10.73236       -2.66218
C         -2.52596      -11.44584       -3.59917
C         -2.20021      -12.80251       -3.33474
C         -2.46289      -13.54585       -2.08252
O         -2.94447      -13.07021       -1.07104
S         -1.93584      -15.21205       -2.17881
C         -1.43951      -15.02440       -3.83666
O         -1.04980      -15.94163       -4.53473
C         -1.60279      -13.63455       -4.29760
C         -1.32227      -13.17875       -5.58889
C         -1.47221      -11.79776       -5.79076
C         -2.06605      -10.94458       -4.83827
C         -2.12832       -9.55732       -5.35787
O         -2.59204       -8.58561       -4.79929
S         -1.41689       -9.40866       -6.94951
C         -1.00153      -11.08938       -6.99160
O         -0.36926      -11.59769       -7.89936
C         -0.76573      -14.04081       -6.64922
C         -1.27404      -14.81851       -7.63379
C         -0.38637      -15.42079       -8.73300
C          0.96435      -15.60107       -8.75030
C          1.82515      -15.31330       -7.65154
N          2.54161      -15.05885       -6.77415
C          1.68835      -16.09013       -9.87684
N          2.30755      -16.46490      -10.78708
C         -1.31326      -15.79112       -9.86494
C         -2.64206      -15.49855       -9.49218
C         -3.66564      -15.57545      -10.44453
C         -3.40534      -16.08410      -11.71471
C         -2.11705      -16.47630      -12.05082
C         -1.06956      -16.31213      -11.13922
C         -2.69599      -15.08955       -8.04574
C         -3.84671      -15.17455       -7.32746
C         -5.06770      -15.71322       -7.84610
N         -6.07368      -16.12941       -8.23904
C         -4.00751      -14.79648       -5.97934
N         -4.26753      -14.45420       -4.90130
H         -8.27081        3.69932        1.27199
H         -7.96428        4.24771        3.62653
H         -6.41550        2.94605        5.04865
H         -5.10490        1.10033        4.11220
H         -7.06427       -0.85028       -1.40815
H         -4.47801       -7.00866       -2.36275
H         -4.36460      -10.49455        0.12351
H         -5.76383       -7.03369        1.75871
H         -2.61004       -8.77693       -2.58169
H         -4.23263      -11.36247       -2.25722
H          0.30731      -13.88260       -6.61034
H         -4.68117      -15.24692      -10.25268
H         -4.21164      -16.17691      -12.43943
H         -1.91791      -16.88874      -13.03823
H         -0.09087      -16.60842      -11.49243
