105

C         -5.13878        3.82137       -1.36834
C         -4.30266        4.76852       -0.77641
C         -3.41948        4.38362        0.21889
C         -3.37813        3.05227        0.64218
C         -4.21682        2.08654        0.06673
C         -5.09986        2.47751       -0.96910
C         -5.88036        1.28194       -1.45640
C         -6.80344        1.32662       -2.45958
C         -7.14721        2.50715       -3.18666
N         -7.45677        3.43918       -3.80499
C         -7.53888        0.20844       -2.94167
N         -8.12517       -0.70509       -3.36177
C         -5.41262        0.08556       -0.61144
C         -4.44890        0.62945        0.41732
C         -3.92238        0.03890        1.52069
C         -4.36940       -1.17826        2.07810
N         -4.67070       -2.18128        2.60426
C         -2.81575        0.56621        2.25083
N         -1.87118        0.91986        2.82465
C         -5.71945       -1.19969       -0.93156
C         -5.51959       -2.59669       -0.46129
C         -6.45022       -3.17640        0.40376
C         -7.38207       -2.44064        1.28381
O         -7.34144       -1.24369        1.50605
S         -8.49784       -3.53137        2.05673
C         -8.00571       -4.78488        0.95932
O         -8.78300       -5.56736        0.43866
C         -6.63798       -4.58086        0.48861
C         -5.74558       -5.52767       -0.03966
C         -4.69252       -4.90755       -0.75783
C         -4.68059       -3.52706       -1.08735
C         -3.79891       -3.26546       -2.23713
O         -3.84178       -2.25883       -2.92096
S         -2.76910       -4.63095       -2.57974
C         -3.43770       -5.51636       -1.23155
O         -2.83531       -6.39688       -0.64468
C         -5.88716       -7.03300        0.10232
S         -5.30926       -8.02450       -1.21465
C         -5.22822       -9.45618       -0.26869
C         -6.04211       -9.29068        0.83887
C         -6.47370       -7.90490        1.03878
C         -7.34512       -7.59033        2.23581
C         -7.96954       -8.81816        2.91537
C         -6.94862       -9.92315        3.12368
C         -7.56905      -11.08742        3.86759
O         -8.12546      -12.03837        3.32548
C         -6.41987      -10.40074        1.78232
C         -4.42255      -10.55322       -0.73736
C         -4.71587      -11.85029       -0.53050
C         -4.00849      -13.09979       -0.93297
C         -4.05674      -14.22512       -0.07082
C         -4.37841      -14.20565        1.37107
O         -4.54590      -13.20226        2.03853
S         -4.36607      -15.80510        2.07397
C         -3.95348      -16.53687        0.54886
O         -3.86684      -17.74064        0.38159
C         -3.76694      -15.53031       -0.51152
C         -3.42337      -15.80779       -1.84370
C         -3.21984      -14.67504       -2.65186
C         -3.48881      -13.35690       -2.21528
C         -3.10539      -12.37627       -3.25335
O         -2.92213      -11.18850       -3.09931
S         -2.75874      -13.15025       -4.78016
C         -2.67671      -14.70902       -4.01857
O         -2.20407      -15.69242       -4.55646
C         -3.10961      -17.18130       -2.31153
C         -3.79787      -18.20399       -2.87749
C         -3.10265      -19.46713       -3.39723
C         -1.93026      -20.03410       -2.99659
C         -1.12030      -19.52546       -1.94119
N         -0.41158      -19.11877       -1.11847
C         -1.36430      -21.20146       -3.59697
N         -0.87246      -22.13894       -4.06896
C         -4.00434      -20.02300       -4.47035
C         -5.18618      -19.25010       -4.52888
C         -6.09168      -19.44250       -5.57623
C         -5.90026      -20.48508       -6.48202
C         -4.78997      -21.31277       -6.36597
C         -3.83023      -21.06932       -5.38017
C         -5.20871      -18.26233       -3.39323
C         -6.36392      -17.74839       -2.90032
C         -7.65605      -18.05033       -3.43633
N         -8.71578      -18.25825       -3.86487
C         -6.44332      -16.88268       -1.78457
N         -6.57767      -16.11226       -0.92609
H         -5.80204        4.20899       -2.12951
H         -4.34650        5.80854       -1.09578
H         -2.76836        5.12418        0.68044
H         -2.67308        2.84522        1.43589
H         -6.33795       -1.34337       -1.80609
H         -8.20611       -7.00643        1.93908
H         -6.76826       -7.00714        2.95980
H         -8.79565       -9.19836        2.29552
H         -8.42352       -8.51913        3.86759
H         -6.11623       -9.55153        3.73373
H         -7.53947      -11.01478        4.96702
H         -7.16754      -11.02337        1.27253
H         -5.54622      -11.02248        1.98586
H         -3.51689      -10.25821       -1.25313
H         -5.63644      -12.07981        0.00429
H         -2.03483      -17.30251       -2.18959
H         -6.94985      -18.79995       -5.74060
H         -6.61821      -20.64955       -7.28307
H         -4.65078      -22.13485       -7.06598
H         -2.96795      -21.72293       -5.39039
