108

C         -5.88282        3.42124        2.65564
C         -4.79718        3.78059        3.46065
C         -3.66226        2.96578        3.54774
C         -3.57239        1.78947        2.80443
C         -4.61927        1.46429        1.95451
C         -5.80259        2.26205        1.90042
C         -6.79569        1.58283        1.00362
C         -7.92062        2.09563        0.44937
C         -8.36057        3.42177        0.69519
N         -8.72975        4.50462        0.89676
C         -8.71320        1.34963       -0.47906
N         -9.36104        0.73872       -1.21606
C         -6.22429        0.24044        0.75166
C         -4.77245        0.35268        0.97801
C         -3.78661       -0.16443        0.20806
C         -4.07696       -0.78961       -1.04076
N         -4.29583       -1.21490       -2.09979
C         -2.40689        0.03902        0.49610
N         -1.28818        0.18743        0.76212
C         -6.93357       -0.90424        0.73462
C         -6.40443       -2.23160        0.88821
C         -6.62890       -3.21304       -0.01155
C         -6.04199       -4.43433        0.51556
C         -5.42956       -4.08362        1.78060
C         -5.64568       -2.78432        2.01089
F         -4.76499       -4.91653        2.58937
C         -6.12447       -5.64409       -0.04446
C         -5.65217       -6.87659        0.55025
C         -6.00554       -7.89613       -0.26041
C         -6.67460       -7.33614       -1.43551
C         -6.74094       -6.00865       -1.29937
F         -7.27621       -5.15769       -2.18236
C         -5.75470       -9.28673        0.00772
C         -5.27981       -9.76022        1.16993
C         -5.12266      -11.15440        1.35777
O         -4.88628      -11.98426        0.30662
C         -4.81443      -13.28215        0.71920
C         -4.95160      -13.27599        2.10860
C         -5.18684      -11.91504        2.52274
C         -5.49108      -11.38684        3.88085
F         -5.74998      -10.05405        3.92090
F         -6.58659      -11.98404        4.41981
F         -4.46609      -11.57653        4.75209
O         -4.86730      -14.43462        2.81765
C         -4.95290      -14.31290        4.22944
C         -4.63878      -14.29198       -0.26635
C         -5.12076      -15.53479       -0.14654
C         -5.02336      -16.47886       -1.22901
C         -4.34498      -17.64422       -1.14307
C         -4.39195      -18.28595       -2.45362
C         -5.18764      -17.41899       -3.29806
C         -5.56168      -16.35260       -2.58480
F         -5.49971      -17.64903       -4.58026
C         -3.78605      -19.43109       -2.79203
C         -3.78705      -20.05824       -4.10631
C         -3.06512      -21.19703       -4.02297
C         -2.54512      -21.31670       -2.66119
C         -2.98178      -20.28138       -1.94146
F         -2.70975      -20.06253       -0.64988
C         -2.81673      -22.05948       -5.14594
C         -2.57976      -23.37161       -5.00893
C         -2.34022      -24.24882       -6.12748
C         -1.31603      -24.19261       -7.00113
C         -1.33049      -24.86328       -8.33111
C         -1.78645      -26.10724       -8.61560
C         -2.31538      -26.97067       -7.61151
N         -2.75821      -27.66382       -6.79431
C         -1.73758      -26.67460       -9.92032
N         -1.71746      -27.14524      -10.97812
C         -0.64760      -23.89606       -9.25646
C         -0.03948      -22.86371       -8.48357
C          0.58091      -21.78559       -9.10566
C          0.65583      -21.76119      -10.49802
C          0.08657      -22.78613      -11.25887
C         -0.58496      -23.84657      -10.64396
C         -0.23653      -23.17325       -7.03599
C          0.56050      -22.77860       -6.01274
C          1.61349      -21.83355       -6.17082
N          2.46541      -21.05412       -6.29297
C          0.47961      -23.37030       -4.71603
N          0.44869      -23.85645       -3.66400
H         -6.75610        4.06682        2.65991
H         -4.83977        4.70154        4.03964
H         -2.83900        3.25454        4.19739
H         -2.69011        1.16761        2.91104
H         -8.02125       -0.89620        0.72285
H         -7.17846       -3.12960       -0.93686
H         -5.33263       -2.24334        2.88847
H         -5.14914       -6.94486        1.50097
H         -7.05207       -7.90702       -2.26748
H         -6.01583       -9.96850       -0.80065
H         -5.03351       -9.10228        1.99502
H         -4.73619      -15.27546        4.69587
H         -5.96748      -14.03925        4.52948
H         -4.19870      -13.62623        4.61620
H         -4.16075      -13.98565       -1.19584
H         -5.62655      -15.86841        0.75431
H         -3.81470      -18.01189       -0.27893
H         -6.16534      -15.53145       -2.93478
H         -4.28575      -19.67443       -4.98120
H         -1.90915      -22.11132       -2.30405
H         -2.85053      -21.60206       -6.13345
H         -2.61558      -23.85073       -4.03096
H         -3.15881      -24.95559       -6.24755
H          1.00396      -20.95112       -8.55640
H          1.15778      -20.93416      -10.99681
H          0.15426      -22.74922      -12.34450
H         -1.04674      -24.58867      -11.28464
