103

C         -1.25854        1.17831       -2.68515
C          0.00025        0.64411       -2.97958
C          0.17819       -0.73488       -3.11749
C         -0.90593       -1.60432       -2.99785
C         -2.17175       -1.07587       -2.76680
C         -2.35173        0.32468       -2.57322
C         -3.79192        0.58755       -2.21512
C         -4.43435        1.77952       -2.18621
C         -3.78874        3.01715       -2.46213
N         -3.27168        4.03307       -2.68002
C         -5.83072        1.88292       -1.91927
N         -6.96419        1.96167       -1.68313
C         -4.38979       -0.76183       -1.99224
C         -3.50691       -1.73845       -2.68165
C         -3.87921       -2.86203       -3.34205
C         -5.25030       -3.18771       -3.56240
N         -6.35707       -3.44062       -3.80237
C         -2.94975       -3.73281       -3.97775
N         -2.19426       -4.46254       -4.47042
C         -5.30981       -1.05552       -1.04794
C         -5.66004       -2.37142       -0.56601
C         -4.78653       -3.21831        0.02882
C         -5.47813       -4.48262        0.25921
C         -6.85104       -4.26830       -0.14810
C         -6.96202       -3.03322       -0.64729
F         -7.82994       -5.17973       -0.09289
C         -4.91607       -5.62990        0.66042
C         -5.57810       -6.92269        0.76570
C         -4.63233       -7.84619        1.03562
C         -3.34489       -7.17315        1.18283
C         -3.52156       -5.86625        0.97136
F         -2.56174       -4.93397        1.01174
C         -4.90564       -9.25036        1.14548
C         -4.31832      -10.17024        0.36383
C         -4.56456      -11.55149        0.53813
S         -4.95379      -12.30051        2.05214
C         -5.00570      -13.91468        1.40123
C         -4.72634      -13.80265        0.07937
C         -4.48972      -12.52705       -0.39605
N         -4.22242      -12.39962       -1.73251
C         -4.29180      -13.72524       -2.14409
N         -4.06719      -14.04255       -3.52259
O         -3.81156      -13.09341       -4.27169
O         -4.13540      -15.23513       -3.83689
C         -4.59471      -14.60342       -1.08807
C         -5.28823      -15.01492        2.24459
C         -4.78832      -16.24745        2.00202
C         -5.25570      -17.13573        3.06047
C         -6.06497      -16.32220        3.94169
C         -6.08483      -15.07052        3.47106
F         -6.69269      -16.74905        5.04335
C         -4.97953      -18.44112        3.16979
C         -5.44653      -19.34743        4.20911
C         -4.97948      -20.58247        3.92556
C         -4.15267      -20.49517        2.72029
C         -4.16682      -19.23694        2.27713
F         -3.52203      -18.78904        1.19316
C         -5.24653      -21.74238        4.73922
C         -5.25591      -22.98488        4.23320
C         -5.55533      -24.16089        5.02005
C         -5.64134      -25.44560        4.61380
C         -5.60893      -26.61112        5.55612
C         -6.14637      -26.68433        6.80031
C         -6.90221      -25.62304        7.38009
N         -7.49963      -24.75565        7.86761
C         -6.01834      -27.82463        7.64195
N         -5.90832      -28.73834        8.34924
C         -4.88654      -27.70175        4.80812
C         -4.65381      -27.27860        3.46807
C         -3.91862      -28.07564        2.59428
C         -3.48679      -29.33249        3.01739
C         -3.76240      -29.77606        4.31066
C         -4.44325      -28.95716        5.21556
C         -5.34712      -25.97020        3.25273
C         -5.82705      -25.52662        2.06409
C         -5.44295      -26.07870        0.80885
N         -5.10069      -26.49521       -0.21968
C         -6.82942      -24.51620        1.98263
N         -7.65797      -23.70679        1.89389
H         -1.32499        2.25111       -2.54694
H          0.85647        1.30819       -3.08673
H          1.17138       -1.13405       -3.31969
H         -0.72061       -2.66955       -3.08451
H         -5.81563       -0.27611       -0.48230
H         -3.74745       -3.02561        0.24683
H         -7.85000       -2.61017       -1.08954
H         -6.62684       -7.11191        0.59429
H         -2.41757       -7.66348        1.42953
H         -5.63037       -9.52325        1.90960
H         -3.63503       -9.85660       -0.42191
H         -4.03890      -11.56198       -2.27291
H         -4.70678      -15.67678       -1.17518
H         -4.14259      -16.53658        1.18865
H         -6.60734      -14.23738        3.91128
H         -6.08441      -19.07548        5.03676
H         -3.61974      -21.31336        2.26678
H         -5.47637      -21.56028        5.78768
H         -5.02544      -23.10643        3.18248
H         -5.63359      -23.91984        6.07777
H         -3.66269      -27.76887        1.58632
H         -2.93800      -29.97502        2.33136
H         -3.43388      -30.76613        4.62191
H         -4.59793      -29.35098        6.21213
