98

C         -5.55595       -0.55561       -5.65145
C         -5.27435       -1.45294       -6.68880
C         -5.06210       -2.80789       -6.42637
C         -5.18505       -3.29987       -5.12909
C         -5.55432       -2.42584       -4.11091
C         -5.68007       -1.03020       -4.34976
C         -5.92112       -0.32878       -3.03328
C         -6.27343        0.96900       -2.85258
C         -6.42502        1.89666       -3.92762
N         -6.54273        2.65671       -4.79042
C         -6.56296        1.51238       -1.56783
N         -6.77789        1.96377       -0.52321
C         -5.76162       -1.39189       -1.98076
C         -5.93325       -2.68652       -2.69460
C         -6.61354       -3.78420       -2.28010
C         -7.35019       -3.79855       -1.05937
N         -7.98722       -3.82152       -0.08982
C         -6.71173       -4.97445       -3.05728
N         -6.75638       -5.95603       -3.67535
C         -5.23505       -1.19478       -0.74716
C         -4.77409       -2.20192        0.14912
S         -3.98120       -3.69145       -0.27532
C         -3.96621       -4.30315        1.35575
C         -4.34142       -3.27053        2.14919
C         -4.74703       -2.12553        1.50058
O         -5.11151       -1.06897        2.28507
C         -4.92591       -1.64282        3.53279
N         -5.22514       -0.80819        4.65971
O         -5.09138       -1.33019        5.77490
O         -5.58060        0.35718        4.44247
C         -4.47959       -2.96809        3.51492
C         -3.56419       -5.63837        1.61683
C         -4.06695       -6.30033        2.66796
C         -3.66664       -7.61736        2.97903
N         -3.73715       -7.95982        4.30935
C         -3.33149       -9.25175        4.42959
C         -3.15366      -10.26368        5.38952
C         -2.71948      -11.35563        4.66086
N         -2.62388      -11.03081        3.33055
C         -3.01052       -9.72607        3.20174
C         -3.21325       -8.70315        2.24538
C         -2.51210      -12.67334        5.10046
C         -1.62702      -13.53790        4.58389
C         -1.49469      -14.84603        5.11747
S         -0.37821      -16.01775        4.51868
C         -0.82015      -17.23827        5.70723
C         -1.80496      -16.70408        6.47385
C         -2.16642      -15.41927        6.14243
O         -3.15492      -14.84092        6.87938
C         -3.42271      -15.85682        7.75733
N         -4.44683      -15.55457        8.71526
O         -4.71394      -16.45100        9.52342
O         -4.98129      -14.43688        8.66300
C         -2.65287      -17.00751        7.56900
C         -0.11894      -18.46885        5.67910
C          0.03892      -19.23890        6.76430
C          0.82500      -20.45842        6.73502
C          2.13447      -20.60674        6.43192
C          2.78405      -21.91642        6.09657
C          2.48271      -23.14444        6.59063
C          1.47262      -23.35561        7.57351
N          0.63413      -23.53558        8.35550
C          3.14597      -24.33794        6.18757
N          3.66697      -25.32330        5.86335
C          3.87744      -21.57734        5.11311
C          3.96058      -20.16316        4.96703
C          4.84392      -19.60035        4.04844
C          5.71031      -20.42901        3.33576
C          5.67407      -21.81041        3.51767
C          4.74607      -22.39003        4.38739
C          3.05111      -19.52527        5.96906
C          3.22002      -18.28998        6.50407
C          4.03477      -17.28291        5.91386
N          4.65418      -16.44121        5.40605
C          2.65187      -17.93231        7.76214
N          2.24411      -17.64148        8.80896
H         -5.67319        0.48704       -5.92000
H         -5.20695       -1.08864       -7.71259
H         -4.81611       -3.48605       -7.24145
H         -4.99995       -4.35559       -4.95830
H         -5.07652       -0.18467       -0.37500
H         -4.28548       -3.59322        4.37650
H         -2.84832       -6.10911        0.94811
H         -4.79700       -5.83480        3.32498
H         -4.02889       -7.39372        5.09594
H         -3.34291      -10.22531        6.45439
H         -2.37403      -11.62774        2.55339
H         -3.07136       -8.76137        1.17565
H         -3.13451      -12.92778        5.94796
H         -0.97544      -13.24401        3.76573
H         -2.71852      -17.91128        8.15820
H          0.35307      -18.75984        4.74260
H         -0.43291      -18.99751        7.71597
H          0.18353      -21.31629        6.92076
H          4.90478      -18.53474        3.85999
H          6.42818      -19.99361        2.64302
H          6.37058      -22.44416        2.97126
H          4.75734      -23.47015        4.46018
