115

C         -2.72573        1.87774       -0.01354
C         -2.49013        1.71733        1.35628
C         -1.98270        0.51561        1.86375
C         -1.66840       -0.54059        1.00860
C         -1.84999       -0.36746       -0.35774
C         -2.41152        0.83619       -0.87753
C         -2.62896        0.66760       -2.35711
C         -2.85038        1.62419       -3.28779
C         -2.94972        3.00039       -2.96088
N         -3.03147        4.13031       -2.69502
C         -2.93539        1.31884       -4.67692
N         -3.01863        1.05543       -5.80405
C         -2.42947       -0.78294       -2.60799
C         -1.58055       -1.28318       -1.50084
C         -0.56909       -2.17925       -1.59311
C         -0.15950       -2.70357       -2.85526
N          0.20917       -3.08636       -3.88707
C          0.24080       -2.54432       -0.47993
N          0.89038       -2.85005        0.43156
C         -3.19448       -1.53221       -3.42923
C         -3.31886       -2.96763       -3.39736
C         -3.70343       -3.65914       -2.29966
C         -3.66202       -5.07665       -2.62758
C         -3.31484       -5.15400       -4.03084
C         -3.11437       -3.91667       -4.49109
F         -3.20788       -6.28263       -4.74590
C         -3.85481       -6.07651       -1.76520
C         -3.75419       -7.49513       -2.06120
C         -3.97771       -8.17198       -0.91569
C         -4.21610       -7.21044        0.15895
C         -4.15694       -5.97981       -0.35210
F         -4.32784       -4.84356        0.33533
C         -3.92843       -9.60440       -0.84800
C         -4.63097      -10.30787        0.04724
C         -4.64650      -11.72823        0.06584
S         -4.86099      -12.46230        1.59537
C         -4.78301      -14.04974        0.96340
C         -4.47139      -14.03159       -0.39132
C         -4.57573      -12.68620       -0.94256
C         -4.52906      -12.45026       -2.44035
N         -5.62887      -11.57296       -2.83283
C         -4.64158      -13.75484       -3.24652
C         -3.69394      -14.80586       -2.68031
C         -4.14387      -15.22022       -1.27036
N         -3.07233      -15.99119       -0.64590
C         -5.00667      -15.09970        1.89472
C         -5.58314      -16.25792        1.54884
C         -5.87337      -17.28992        2.50473
C         -6.86534      -18.19336        2.33905
C         -6.84974      -19.08352        3.49346
C         -5.75160      -18.64500        4.32782
C         -5.16435      -17.59801        3.74546
F         -5.37871      -19.19888        5.48777
C         -7.69039      -20.09806        3.72124
C         -7.67505      -20.98493        4.87527
C         -8.66701      -21.88582        4.71794
C         -9.37704      -21.57865        3.47403
C         -8.78817      -20.53448        2.88791
F         -9.15781      -19.98605        1.72409
C         -8.96889      -22.91388        5.67939
C         -9.53577      -24.07305        5.31697
C         -9.85871      -25.12429        6.25126
C        -10.42774      -26.31684        5.98653
C        -10.39138      -27.45906        6.94331
C        -10.60858      -27.41081        8.27986
C        -10.92112      -26.19647        8.95953
N        -11.15214      -25.20348        9.51490
C        -10.58993      -28.56601        9.10691
N        -10.56701      -29.50393        9.79358
C        -10.16311      -28.67336        6.08730
C        -10.32691      -28.31159        4.71839
C        -10.07151      -29.23359        3.70874
C         -9.71222      -30.53616        4.05727
C         -9.58115      -30.90304        5.39933
C         -9.78633      -29.97012        6.41954
C        -10.75954      -26.88127        4.65437
C        -11.51905      -26.32334        3.68061
C        -11.79904      -26.97696        2.44661
N        -12.00720      -27.49320        1.42836
C        -12.17627      -25.07000        3.85711
N        -12.72176      -24.05323        3.98051
H         -3.16653        2.81034       -0.34700
H         -2.72387        2.53061        2.04150
H         -1.83763        0.40223        2.93674
H         -1.30753       -1.46990        1.43809
H         -3.89843       -1.07933       -4.12400
H         -3.97498       -3.25240       -1.33794
H         -2.83063       -3.65047       -5.49766
H         -3.54977       -7.92633       -3.02907
H         -4.40863       -7.46351        1.18860
H         -3.32094      -10.09306       -1.60230
H         -5.21450       -9.78941        0.80385
H         -3.57396      -11.97570       -2.69062
H         -6.51034      -11.97724       -2.51868
H         -5.68394      -11.51686       -3.84719
H         -4.39749      -13.56237       -4.29827
H         -5.66784      -14.14725       -3.22421
H         -2.67334      -14.39934       -2.66785
H         -3.67897      -15.68456       -3.33634
H         -5.03715      -15.84591       -1.37046
H         -2.28698      -15.37232       -0.44712
H         -2.72815      -16.69807       -1.29068
H         -4.77492      -14.90647        2.93956
H         -5.89154      -16.45556        0.52817
H         -7.56322      -18.23775        1.51730
H         -4.30893      -17.06005        4.11820
H         -6.97511      -20.93416        5.69462
H        -10.23638      -22.11003        3.09972
H         -8.70812      -22.71059        6.71633
H         -9.72575      -24.23774        4.26341
H         -9.49994      -24.90740        7.25653
H        -10.12607      -28.98389        2.65449
H         -9.52560      -31.27176        3.27687
H         -9.29809      -31.92348        5.65189
H         -9.62525      -30.29747        7.43992
