128

C         -2.95815       -0.46137        3.07556
C         -2.67362        0.90583        3.00529
C         -3.68800        1.84144        2.75835
C         -5.01322        1.43403        2.59198
C         -5.30612        0.08066        2.68879
C         -4.27419       -0.87517        2.91741
C         -4.85940       -2.24615        2.75836
C         -4.41319       -3.40587        3.28616
C         -3.24253       -3.47251        4.09181
N         -2.29470       -3.52509        4.75898
C         -5.16389       -4.60918        3.15470
N         -5.80475       -5.56809        3.02588
C         -6.13764       -2.02188        2.03478
C         -6.58181       -0.65403        2.41069
C         -7.83773       -0.24666        2.64891
C         -8.94089       -1.15182        2.56562
N         -9.82922       -1.89432        2.49786
C         -8.13952        1.06402        3.13749
N         -8.37251        2.12666        3.51683
C         -6.50142       -2.71225        0.93353
C         -7.42997       -2.30128       -0.11430
C         -7.34603       -1.21839       -0.93729
N         -6.24116       -0.27768       -0.99255
O         -5.21104       -0.51798       -0.35536
O         -6.38953        0.71041       -1.72348
C         -8.39880       -1.20730       -1.93144
C         -9.06122       -2.36942       -1.86203
C         -8.46119       -3.15871       -0.79265
C         -8.78925       -4.42666       -0.47315
C         -8.79209       -4.88180        0.91563
C         -9.41749       -6.06427        0.94447
C         -9.71151       -6.46459       -0.41789
N        -10.20837       -7.78208       -0.72237
O        -10.92549       -7.92305       -1.71893
O         -9.92250       -8.68255        0.08114
C         -9.33852       -5.53625       -1.33246
C         -9.09054       -5.74127       -2.78997
C         -8.13934       -6.64249       -3.18924
C         -7.60661       -6.62214       -4.55405
C         -6.55089       -7.27212       -5.13776
C         -5.72597       -8.51192       -4.73506
C         -4.69221       -8.97438       -5.82982
N         -3.87551      -10.16275       -5.53687
C         -5.04509       -8.33976       -3.35341
N         -4.23792       -9.49202       -2.92755
C         -6.22714       -6.36924       -6.25785
C         -5.01804       -5.91376       -6.63532
C         -4.83066       -4.65519       -7.47177
C         -6.12924       -4.17288       -8.11836
C         -7.33903       -4.56655       -7.67033
C         -7.34800       -5.49180       -6.56408
C         -8.13993       -5.58710       -5.48664
C         -9.27759       -4.79511       -5.10175
C         -9.71533       -4.88318       -3.82948
C         -3.70256       -4.86226       -8.44942
C         -3.20493       -3.93449       -9.28492
C         -2.14644       -4.23296      -10.23187
C         -0.96663       -3.58086      -10.37442
N         -0.50317       -2.50243       -9.53240
O          0.27513       -1.69055      -10.05320
O         -0.86300       -2.47429       -8.34840
C         -0.15297       -4.15303      -11.42291
C         -0.76983       -5.24329      -11.90370
C         -2.05553       -5.37129      -11.21663
C         -3.00538       -6.27152      -11.55753
C         -4.42806       -5.99697      -11.34129
C         -5.11278       -6.76958      -12.18737
C         -4.18826       -7.67553      -12.83613
N         -4.68662       -8.64193      -13.78805
O         -3.98090       -9.59669      -14.10567
O         -5.82364       -8.44392      -14.23840
C         -2.90418       -7.50213      -12.42530
C         -1.71207       -8.33439      -12.71302
C         -1.49448       -9.64572      -12.42873
C         -0.56573      -10.55505      -13.17030
C          0.77778      -10.45618      -13.28139
C          1.47108       -9.32787      -12.76040
N          2.00471       -8.38417      -12.34695
C          1.57851      -11.50998      -13.81345
N          2.22919      -12.37285      -14.23753
C         -1.42217      -11.73446      -13.54886
C         -2.60706      -11.69618      -12.75539
C         -3.66506      -12.55856      -12.99672
C         -3.52242      -13.50995      -14.00595
C         -2.34312      -13.58279      -14.76316
C         -1.29080      -12.68366      -14.55264
C         -2.45993      -10.56392      -11.79148
C         -2.65319      -10.75394      -10.46661
C         -3.63345      -11.65772       -9.96846
N         -4.48349      -12.35412       -9.59560
C         -1.72545      -10.21584       -9.52816
N         -0.89552       -9.86096       -8.79778
H         -2.13428       -1.15708        3.19571
H         -1.64445        1.24779        3.10306
H         -3.43267        2.89503        2.65849
H         -5.75989        2.17654        2.33009
H         -5.98823       -3.64165        0.68302
H         -8.64336       -0.36202       -2.55877
H         -9.98152       -2.58173       -2.37848
H         -8.51329       -4.31828        1.79199
H         -9.66574       -6.63067        1.83005
H         -7.61559       -7.24924       -2.46474
H         -6.44671       -9.34138       -4.64888
H         -3.96207       -8.18749       -5.99731
H         -5.20699       -9.16171       -6.77794
H         -3.89323      -10.28336       -4.51294
H         -2.89139       -9.91463       -5.67871
H         -5.79393       -8.18643       -2.57480
H         -4.40866       -7.45006       -3.37713
H         -4.83970      -10.30466       -2.77147
H         -3.77717       -9.29475       -2.04067
H         -4.11107       -6.29255       -6.18757
H         -4.50846       -3.87373       -6.76964
H         -6.07181       -3.42798       -8.90631
H         -8.26478       -4.18534       -8.08605
H         -9.73277       -4.12357       -5.82117
H        -10.56381       -4.27884       -3.52956
H         -3.23682       -5.84759       -8.44051
H         -3.61228       -2.92427       -9.28960
H          0.76732       -3.72150      -11.78722
H         -0.43293       -5.80253      -12.75847
H         -4.88941       -5.22922      -10.74481
H         -6.18094       -6.74770      -12.34979
H         -0.99750       -7.83124      -13.36356
H         -4.60725      -12.47856      -12.46398
H         -4.34516      -14.18891      -14.22196
H         -2.26182      -14.33306      -15.54778
H         -0.42413      -12.73527      -15.20332
