107

C         -0.63832        1.33611        0.46600
C         -0.72489        1.21772        1.85762
C         -0.56688       -0.02235        2.48502
C         -0.29157       -1.16601        1.73629
C         -0.14874       -1.04483        0.35865
C         -0.34914        0.20846       -0.29295
C         -0.24617        0.00882       -1.78362
C         -0.11089        0.94472       -2.74878
C         -0.09150        2.34011       -2.46973
N         -0.07843        3.47386       -2.25199
C          0.06949        0.60540       -4.12248
N          0.20035        0.32216       -5.23927
C         -0.22088       -1.46459       -1.96995
C          0.21753       -2.04979       -0.67898
C          1.05285       -3.10265       -0.50824
C          1.72188       -3.69341       -1.62083
N          2.32365       -4.11824       -2.51779
C          1.45005       -3.57791        0.77319
N          1.75625       -3.97516        1.82019
C         -0.84888       -2.12119       -2.96627
C         -1.21112       -3.51546       -2.97943
C         -2.00705       -4.08671       -2.04640
C         -2.14925       -5.49642       -2.37831
C         -1.41977       -5.69172       -3.61483
C         -0.87707       -4.52610       -3.98166
F         -1.32827       -6.84306       -4.29098
C         -2.79550       -6.40580       -1.64028
C         -2.85199       -7.83443       -1.88840
C         -3.50450       -8.40949       -0.85287
C         -3.94413       -7.35948        0.05968
C         -3.51941       -6.18247       -0.40758
F         -3.73600       -4.99573        0.16957
C         -3.63557       -9.83542       -0.73713
C         -4.30252      -10.48435        0.22505
C         -4.38701      -11.90719        0.27539
S         -4.46370      -12.62144        1.84157
C         -4.58120      -14.21397        1.22997
C         -4.54523      -14.23548       -0.15568
C         -4.45211      -12.90042       -0.69364
S         -4.44824      -12.62117       -2.41269
O         -3.07795      -12.27384       -2.72567
O         -5.56960      -11.73844       -2.65239
C         -4.78096      -14.19880       -3.14230
C         -4.05976      -15.30711       -2.39468
C         -4.64050      -15.48247       -0.99257
C         -4.71364      -15.27935        2.15360
C         -5.92759      -15.68754        2.58872
C         -5.70830      -16.74486        3.57203
C         -4.27085      -16.92105        3.65505
C         -3.67900      -16.05963        2.82094
F         -3.63804      -17.79282        4.44936
C         -6.65556      -17.38773        4.26768
C         -6.43782      -18.41698        5.27206
C         -7.63839      -18.77361        5.78177
C         -8.67439      -18.02285        5.07370
C         -8.08866      -17.20182        4.19659
F         -8.72480      -16.35032        3.38307
C         -7.83831      -19.79229        6.78135
C         -6.94908      -20.06456        7.74797
C         -7.13314      -21.07949        8.75518
C         -7.29560      -22.40667        8.58346
C         -7.79976      -23.31868        9.65322
C         -7.51190      -23.27026       10.97782
C         -6.60903      -22.31553       11.53221
N         -5.88874      -21.52699       11.98646
C         -8.06145      -24.17433       11.92865
N         -8.51573      -24.89299       12.71865
C         -8.64267      -24.33459        8.93129
C         -8.47510      -24.16753        7.52584
C         -9.22960      -24.92004        6.63076
C        -10.09705      -25.89402        7.12495
C        -10.22904      -26.09371        8.50027
C         -9.51897      -25.30386        9.40858
C         -7.43258      -23.12219        7.28784
C         -6.63898      -23.02169        6.19264
C         -6.86087      -23.77005        5.00125
N         -7.05313      -24.35825        4.01897
C         -5.45240      -22.23052        6.18052
N         -4.46430      -21.62179        6.15386
H         -0.81147        2.31416        0.03209
H         -0.93250        2.09983        2.46104
H         -0.65895       -0.09519        3.56730
H         -0.20112       -2.11499        2.25495
H         -1.26362       -1.59664       -3.82294
H         -2.45316       -3.59875       -1.19171
H         -0.28191       -4.35132       -4.86292
H         -2.39538       -8.34644       -2.72297
H         -4.51585       -7.51296        0.96009
H         -3.09983      -10.37585       -1.50614
H         -4.77185       -9.92306        1.02980
H         -4.42995      -14.13919       -4.17786
H         -5.86413      -14.35153       -3.15090
H         -2.98728      -15.08205       -2.32728
H         -4.15967      -16.24506       -2.95042
H         -4.11154      -16.30590       -0.49942
H         -5.69638      -15.77194       -1.06679
H         -6.88520      -15.28290        2.30096
H         -2.61856      -15.94085        2.67365
H         -5.47362      -18.81676        5.55023
H         -9.73381      -18.11090        5.25001
H         -8.78154      -20.33243        6.72839
H         -6.04022      -19.47142        7.85484
H         -7.17699      -20.62458        9.74228
H         -9.18277      -24.78150        5.55624
H        -10.67590      -26.50307        6.43297
H        -10.90484      -26.86295        8.86952
H         -9.69430      -25.48068       10.46269
