91

C         -4.84077        0.89298        4.40560
C         -3.52122        0.56764        4.73968
C         -2.84895       -0.46681        4.08355
C         -3.46563       -1.16459        3.04707
C         -4.74837       -0.79554        2.66040
C         -5.47036        0.20708        3.37185
C         -6.87377        0.28608        2.82016
C         -7.82753        1.20533        3.10633
C         -7.63530        2.26095        4.04255
N         -7.49761        3.12093        4.80461
C         -9.10512        1.20185        2.47162
N        -10.15377        1.18139        1.97475
C         -6.97036       -0.84827        1.84834
C         -5.58135       -1.23443        1.50492
C         -5.07991       -1.54665        0.28213
C         -5.82530       -1.32502       -0.91162
N         -6.36289       -1.07305       -1.90868
C         -3.73310       -1.93734        0.07619
N         -2.64187       -2.30647       -0.09183
C         -8.06646       -1.61825        1.67206
C         -8.03902       -2.91102        1.07289
S         -8.59716       -3.12366       -0.53889
C         -8.17158       -4.80194       -0.58088
C         -7.83026       -5.20761        0.68942
C         -7.74598       -4.14402        1.61372
S         -7.30502       -4.54908        3.26318
C         -7.47429       -6.36094        3.05840
S         -7.50554       -6.82332        1.29618
C         -8.28403       -5.47053       -1.82955
C         -7.53727       -6.53933       -2.15364
C         -7.59709       -7.10413       -3.44843
S         -7.94436       -6.20725       -4.88049
C         -7.68938       -7.53951       -5.95124
C         -7.39934       -8.61516       -5.17634
C         -7.34491       -8.38051       -3.81330
N         -7.05689       -9.44577       -3.00370
C         -6.91162      -10.45997       -3.94014
N         -6.60969      -11.78548       -3.49236
O         -6.49064      -11.94180       -2.27031
O         -6.49578      -12.65833       -4.35928
C         -7.09732      -10.00575       -5.25999
C         -7.82927       -7.40372       -7.37563
S         -8.33266       -8.75829       -8.30618
C         -8.17861       -7.91975       -9.80053
C         -7.87332       -6.59897       -9.56318
C         -7.65165       -6.30953       -8.20030
S         -7.15808       -4.66059       -7.82944
C         -7.40174       -3.97463       -9.49521
S         -7.69911       -5.28075      -10.71125
C         -8.40924       -8.66515      -10.98177
C         -7.89818       -8.31276      -12.16869
C         -8.14228       -9.02787      -13.40001
C         -9.30202       -9.57304      -13.81644
C         -9.38522      -10.62211      -14.86549
C         -8.73964      -10.63535      -16.05495
C         -7.85821       -9.58502      -16.45044
N         -7.12378       -8.73849      -16.75620
C         -8.92056      -11.66396      -17.02151
N         -9.05840      -12.49864      -17.81304
C        -10.39890      -11.60366      -14.33736
C        -11.04316      -11.04204      -13.19511
C        -11.94625      -11.78732      -12.44586
C        -12.27376      -13.07212      -12.87709
C        -11.67858      -13.61165      -14.02185
C        -10.72224      -12.89114      -14.74353
C        -10.56134       -9.64122      -13.03528
C        -11.23465       -8.60740      -12.47553
C        -12.40823       -8.78290      -11.69082
N        -13.34414       -8.93327      -11.02117
C        -10.84512       -7.25258      -12.70313
N        -10.57772       -6.14577      -12.92277
H         -5.31753        1.68031        4.97698
H         -3.01428        1.11804        5.53048
H         -1.83218       -0.72268        4.37522
H         -2.91932       -1.97130        2.57004
H         -9.02529       -1.35726        2.10817
H         -8.41546       -6.68164        3.51447
H         -6.64755       -6.87520        3.55385
H         -8.96659       -5.03407       -2.55699
H         -6.82758       -6.96736       -1.45455
H         -6.98941       -9.48299       -1.99324
H         -7.02706      -10.61962       -6.14931
H         -6.51754       -3.40430       -9.78996
H         -8.26636       -3.30594       -9.48717
H         -9.03061       -9.55187      -10.88831
H         -7.19746       -7.48718      -12.26499
H         -7.22271       -9.13539      -13.97438
H        -12.40706      -11.41706      -11.53593
H        -13.00037      -13.65987      -12.31894
H        -11.95384      -14.61302      -14.34746
H        -10.26115      -13.37458      -15.59606
