86

C         -3.07498        3.29246       -1.37230
C         -3.88965        3.96217       -2.28831
C         -5.23959        3.62546       -2.42164
C         -5.80487        2.62021       -1.63308
C         -5.01229        1.97659       -0.68818
C         -3.63194        2.30673       -0.56366
C         -3.01188        1.40963        0.46672
C         -1.84399        1.59812        1.12757
C         -0.96289        2.68150        0.85477
N         -0.22923        3.55296        0.63313
C         -1.43134        0.74737        2.19510
N         -1.10361        0.03148        3.04791
C         -4.02474        0.33642        0.71276
C         -5.33484        0.90250        0.30565
C         -6.53247        0.70802        0.90853
C         -6.65832       -0.07033        2.09825
N         -6.77262       -0.65077        3.09662
C         -7.72080        1.37419        0.49363
N         -8.69014        1.91051        0.14681
C         -3.68513       -0.94949        0.93640
C         -4.52732       -2.08749        0.89417
N         -4.18688       -3.13372        1.72815
C         -4.99077       -4.21511        1.48774
C         -5.92219       -3.83961        0.54655
C         -5.61866       -2.50654        0.15628
C         -4.80462       -5.48436        2.09581
C         -4.59024       -6.57627        2.55407
C         -4.31170       -7.89171        3.01535
N         -3.78984       -8.18203        4.25403
C         -3.64826       -9.54175        4.33939
C         -3.22251      -10.57951        5.20602
C         -3.40367      -11.75248        4.48579
N         -3.94916      -11.44410        3.25755
C         -4.07558      -10.08785        3.17504
C         -4.50430       -9.06110        2.30299
C         -3.18321      -13.11359        4.82924
C         -2.84688      -14.03749        3.91399
C         -2.63494      -15.38785        4.27819
N         -1.74027      -16.12253        3.53272
C         -1.62392      -17.38470        4.04937
C         -2.49272      -17.48210        5.11480
C         -3.12575      -16.22247        5.26379
C         -0.71781      -18.37437        3.58320
C          0.04085      -19.27293        3.33814
C          0.78861      -20.47363        3.21188
C          2.10975      -20.67046        3.39562
C          2.76966      -21.99664        3.14377
C          2.25941      -23.23184        3.38993
C          0.96527      -23.43527        3.95328
N         -0.09523      -23.60403        4.39275
C          2.97431      -24.44064        3.15559
N          3.53587      -25.43756        2.96053
C          4.16534      -21.67684        2.69497
C          4.40615      -20.28487        2.86582
C          5.63881      -19.74978        2.49182
C          6.64285      -20.59108        2.00570
C          6.40962      -21.95559        1.85361
C          5.16530      -22.49894        2.17563
C          3.19494      -19.64872        3.50250
C          3.20523      -18.47873        4.18956
C          4.29754      -17.56312        4.16372
N          5.16832      -16.79571        4.13067
C          2.18210      -18.09974        5.10442
N          1.42277      -17.75960        5.91293
H         -2.02570        3.56294       -1.33975
H         -3.46527        4.74467       -2.91533
H         -5.85353        4.14819       -3.15319
H         -6.84795        2.36947       -1.79463
H         -2.63748       -1.19794        1.09084
H         -3.42562       -3.13143        2.39433
H         -6.70428       -4.47131        0.14471
H         -6.12734       -1.94733       -0.61748
H         -3.54412       -7.53676        4.99320
H         -2.83118      -10.49229        6.21054
H         -4.23929      -12.07746        2.52425
H         -4.89773       -9.15455        1.30062
H         -3.25434      -13.37867        5.88237
H         -2.70411      -13.76292        2.87307
H         -1.20389      -15.77175        2.75248
H         -2.63338      -18.35299        5.74264
H         -3.85336      -15.95568        6.01989
H          0.14568      -21.30394        2.93698
H          5.87683      -18.69519        2.55931
H          7.61545      -20.17790        1.74389
H          7.20025      -22.60107        1.47499
H          5.03608      -23.56040        2.00302
