110

C          0.49250        0.94996        2.29619
C          0.81651        0.67286        3.62985
C          0.66860       -0.61673        4.15993
C          0.24712       -1.67317        3.35468
C         -0.00809       -1.41304        2.01697
C          0.06061       -0.08857        1.48622
C         -0.44391       -0.11430        0.06397
C         -0.27580        0.80375       -0.91144
C          0.41969        2.02050       -0.70160
N          0.99856        3.01619       -0.52499
C         -0.72323        0.57337       -2.24520
N         -1.11804        0.36882       -3.31719
C         -1.03182       -1.46854       -0.09988
C         -0.34450       -2.31445        0.88921
C          0.23097       -3.51441        0.65263
C          0.40459       -3.95571       -0.69178
N          0.61623       -4.22965       -1.79915
C          0.81193       -4.30197        1.68182
N          1.22468       -4.95870        2.54436
C         -2.19555       -1.77407       -0.71582
C         -2.92330       -3.02595       -0.64197
C         -3.05356       -3.73834        0.50448
C         -3.79098       -4.95756        0.28498
C         -3.99109       -5.95296        1.27041
N         -4.12696       -6.76110        2.09152
C         -4.21258       -4.99325       -0.98584
C         -3.74625       -3.76709       -1.65695
C         -4.05076       -3.42780       -2.93150
C         -4.82843       -4.21897       -3.91260
C         -4.93824       -3.46965       -5.02906
C         -4.29889       -2.19446       -4.82447
C         -3.74385       -2.16487       -3.60373
C         -4.34768       -1.13450       -5.75930
N         -4.44206       -0.27272       -6.53038
C         -5.38406       -5.54122       -3.85209
C         -6.69063       -5.76598       -4.04068
C         -7.19035       -7.07090       -3.91703
N         -7.22826       -7.85581       -5.04563
C         -7.80288       -9.04521       -4.69664
C         -8.21617      -10.29414       -5.21907
C         -8.77110      -10.97202       -4.14122
N         -8.66768      -10.17965       -3.01758
C         -8.08953       -9.00319       -3.37482
C         -7.70479       -7.75831       -2.83730
C         -9.39497      -12.24552       -4.06232
C         -9.85369      -12.75331       -2.90963
C        -10.52782      -14.01611       -2.76172
C         -9.91804      -15.18507       -3.06283
C        -10.66900      -16.28539       -2.50394
C        -10.31607      -17.64564       -2.65618
N        -10.02358      -18.76266       -2.76695
C        -11.72348      -15.81281       -1.81901
C        -11.72239      -14.35496       -1.94183
C        -12.62437      -13.48437       -1.43317
C        -13.62610      -13.68681       -0.35352
C        -14.20700      -12.47968       -0.16278
C        -13.69034      -11.50779       -1.09562
C        -12.76018      -12.08720       -1.86492
C        -14.14847      -10.17241       -1.17912
N        -14.51986       -9.07434       -1.22628
C        -13.93420      -14.83935        0.46618
C        -14.81393      -14.86989        1.48035
C        -15.14319      -16.02793        2.28284
C        -15.34466      -17.29875        1.88627
C        -15.40499      -18.45870        2.80834
C        -16.18137      -18.56921        3.91047
C        -17.03232      -17.50467        4.33431
N        -17.71019      -16.62380        4.66682
C        -16.27493      -19.77434        4.65739
N        -16.35377      -20.75986        5.26475
C        -14.57015      -19.51311        2.14221
C        -14.33063      -19.11242        0.79395
C        -13.45183      -19.81742       -0.01639
C        -12.86069      -20.97308        0.49552
C        -13.13579      -21.40176        1.80148
C        -13.97759      -20.66433        2.64018
C        -15.10228      -17.86397        0.54609
C        -15.69309      -17.49154       -0.61142
C        -15.45940      -18.17478       -1.83736
N        -15.24313      -18.71639       -2.84100
C        -16.66409      -16.44806       -0.65427
N        -17.47204      -15.61523       -0.68694
H          0.58612        1.97255        1.94751
H          1.17422        1.47526        4.27309
H          0.89431       -0.79663        5.20971
H          0.13016       -2.66042        3.79075
H         -2.71923       -0.99573       -1.25007
H         -2.66385       -3.48348        1.47942
H         -4.80169       -5.79132       -1.40341
H         -5.42266       -3.76107       -5.95064
H         -3.24042       -1.30771       -3.20329
H         -4.69953       -6.35513       -3.62270
H         -7.39246       -4.95962       -4.23922
H         -6.91604       -7.62630       -5.98057
H         -8.14143      -10.64424       -6.23957
H         -8.97023      -10.36220       -2.07084
H         -7.80648       -7.40566       -1.82035
H         -9.52381      -12.79661       -4.99223
H         -9.74891      -12.22486       -1.96714
H         -8.94921      -15.30255       -3.52888
H        -12.46853      -16.43409       -1.36195
H        -14.95771      -12.22296        0.57081
H        -12.27336      -11.61988       -2.70670
H        -13.40479      -15.74892        0.23105
H        -15.31229      -13.96204        1.81306
H        -15.20567      -15.76944        3.34046
H        -13.19080      -19.49711       -1.02039
H        -12.17152      -21.54488       -0.12464
H        -12.66742      -22.31114        2.17460
H        -14.11874      -21.00566        3.65991
