128

C         -9.15538       -6.04553       11.29110
C        -10.40658       -5.42267       11.20180
C        -11.35788       -5.83126       10.25341
C        -11.09798       -6.90026        9.39790
C         -9.87846       -7.54552        9.51824
C         -8.88145       -7.10329       10.43856
C         -7.61989       -7.88349       10.17600
C         -6.57514       -8.09820       11.00329
C         -6.53188       -7.56448       12.32353
N         -6.50741       -7.13788       13.39966
C         -5.50186       -8.95963       10.63466
N         -4.62893       -9.65552       10.31610
C         -7.85709       -8.52557        8.85488
C         -9.31837       -8.71218        8.79068
C         -9.96982       -9.89101        8.65418
C         -9.23962      -11.12107        8.57423
N         -8.65106      -12.11142        8.61293
C        -11.37694      -10.00722        8.86329
N        -12.51896      -10.09002        9.04108
C         -7.00045       -8.47041        7.81317
C         -7.42993       -8.56282        6.45100
S         -7.95632       -7.11375        5.65634
C         -8.28326       -7.90508        4.15719
C         -7.98683       -9.24739        4.25872
C         -7.45118       -9.60996        5.55307
C         -7.00904      -10.89529        5.87628
C         -7.19063      -11.82137        4.81917
C         -6.75558      -13.24537        5.05177
C         -7.74288      -11.45568        3.54433
C         -8.15461      -10.14928        3.20208
C         -8.73833       -7.12067        3.06214
C        -10.05121       -6.96169        2.82457
C        -10.53045       -6.11667        1.74113
C        -11.26641       -6.68368        0.75081
C        -11.49966       -5.92986       -0.46776
C        -11.97063       -6.33381       -1.67858
C        -12.59591       -7.68000       -2.02029
C        -14.15546       -7.64250       -1.97919
N        -14.72391       -7.38635       -0.65153
C        -12.16647       -8.29807       -3.37280
N        -10.72611       -8.54004       -3.47192
C        -11.60650       -5.22215       -2.57416
C        -11.34791       -5.17233       -3.89291
C        -10.81154       -3.93179       -4.59062
C        -10.60382       -2.73872       -3.66806
C        -10.79731       -2.79885       -2.34062
C        -11.18069       -4.06706       -1.78219
C        -11.05405       -4.52261       -0.53076
C        -10.46332       -3.89589        0.62167
C        -10.18624       -4.67670        1.68165
C        -11.71084       -3.59995       -5.75257
C        -12.79817       -2.81674       -5.67268
C        -13.58423       -2.54845       -6.82066
S        -14.94274       -3.55026       -7.15227
C        -15.40413       -2.65377       -8.55529
C        -14.54706       -1.58598       -8.74026
C        -13.48985       -1.54036       -7.75743
C        -12.48212       -0.56490       -7.73444
C        -12.59790        0.37611       -8.78664
C        -11.58898        1.49435       -8.87520
C        -13.66849        0.33635       -9.74477
C        -14.68497       -0.64838       -9.77032
C        -16.54583       -3.10460       -9.27705
C        -16.38455       -3.96861      -10.29167
C        -17.45265       -4.55158      -11.07260
C        -18.48471       -5.30784      -10.65039
C        -19.67544       -5.60806      -11.48663
C        -19.67572       -6.06630      -12.76051
C        -18.46129       -6.31609      -13.46800
N        -17.47107       -6.50495      -14.03940
C        -20.86929       -6.39518      -13.46057
N        -21.83843       -6.65461      -14.04147
C        -20.84100       -5.43414      -10.55851
C        -20.35076       -5.37612       -9.21874
C        -21.20779       -5.10130       -8.16228
C        -22.56658       -4.92680       -8.43066
C        -23.05498       -5.00709       -9.74075
C        -22.19327       -5.24701      -10.81490
C        -18.87142       -5.58629       -9.25044
C        -18.10991       -6.15281       -8.28509
C        -18.60812       -6.43116       -6.97833
N        -19.01238       -6.64162       -5.91332
C        -16.79642       -6.63411       -8.55974
N        -15.74593       -7.08005       -8.78561
H         -8.43396       -5.66307       12.00509
H        -10.63997       -4.59001       11.86340
H        -12.30799       -5.30487       10.18229
H        -11.83500       -7.19228        8.65585
H         -5.97496       -8.13448        7.95017
H         -6.57469      -11.18050        6.82682
H         -7.09220      -13.90444        4.24557
H         -7.18221      -13.62088        5.98744
H         -5.66361      -13.29551        5.10555
H         -7.85025      -12.23054        2.78312
H         -8.55501       -9.90621        2.22557
H         -7.98909       -6.64610        2.42999
H        -10.80266       -7.45775        3.43128
H        -11.54577       -7.73000        0.77353
H        -12.28675       -8.40492       -1.25479
H        -14.55346       -8.60957       -2.31383
H        -14.53686       -6.88692       -2.67533
H        -14.54720       -8.18362       -0.04143
H        -15.73893       -7.31322       -0.72740
H        -12.51387       -7.67893       -4.20502
H        -12.66714       -9.26258       -3.51028
H        -10.21540       -7.67748       -3.27759
H        -10.49161       -8.80572       -4.42705
H        -11.41826       -6.04037       -4.52960
H         -9.82018       -4.17865       -4.99657
H        -10.26730       -1.80991       -4.11962
H        -10.63944       -1.94078       -1.69917
H        -10.19518       -2.84716        0.59888
H         -9.68441       -4.25027        2.54527
H        -11.44982       -4.07516       -6.69715
H        -13.10681       -2.37201       -4.73064
H        -11.68687       -0.52383       -7.00026
H        -11.38649        1.75255       -9.92011
H        -10.63455        1.19956       -8.42553
H        -11.96461        2.38044       -8.35473
H        -13.70214        1.11431      -10.50982
H        -15.47129       -0.64643      -10.51311
H        -17.52291       -2.76523       -8.94795
H        -15.38161       -4.25539      -10.61160
H        -17.36546       -4.28379      -12.12589
H        -20.86129       -4.99165       -7.13978
H        -23.25318       -4.71227       -7.61319
H        -24.11726       -4.85870       -9.92580
H        -22.61018       -5.25089      -11.81636
