120

C         -6.82868      -15.14384       -5.01756
C         -5.43588      -15.28287       -5.06387
C         -4.62938      -14.88868       -3.98763
C         -5.20335      -14.40635       -2.81353
C         -6.58912      -14.34722       -2.73895
C         -7.41618      -14.65285       -3.86124
C         -8.85001      -14.33949       -3.50349
C         -9.98118      -14.70139       -4.14748
C         -9.97044      -15.43934       -5.36305
N         -9.96652      -16.04557       -6.35162
C        -11.27302      -14.41805       -3.61740
N        -12.31332      -14.14484       -3.17450
C         -8.77617      -13.65328       -2.18523
C         -7.49628      -14.09246       -1.58979
C         -7.35610      -14.74985       -0.41293
C         -8.51991      -15.16984        0.28534
N         -9.49914      -15.58469        0.76472
C         -6.11536      -15.30528        0.02234
N         -5.10084      -15.74291        0.36857
C         -9.53160      -12.60554       -1.78605
C         -9.32731      -11.67820       -0.60392
S         -7.68711      -10.81602       -0.77773
C         -8.45959       -9.46590       -1.70961
C         -9.94134       -9.42931       -1.49229
N        -10.63413       -8.55175       -2.16062
N        -11.96543       -8.48048       -2.01268
C        -10.36334      -10.55239       -0.59365
S        -11.66201      -10.47411        0.43822
C         -7.74852       -8.56624       -2.62591
C         -6.44100       -8.74090       -2.85678
C         -5.61083       -7.90445       -3.71050
C         -4.51529       -8.48704       -4.26416
C         -3.51053       -7.68096       -4.92648
C         -2.29207       -7.99874       -5.44743
C         -1.62584       -9.34509       -5.75914
C         -0.79146       -9.85713       -4.55561
N         -0.07902      -11.11421       -4.81433
C         -2.65598      -10.41177       -6.26352
N         -2.12070      -11.73914       -6.60510
C         -1.66476       -6.68268       -5.66247
C         -0.37935       -6.32223       -5.79793
C          0.05517       -4.85196       -5.87216
C         -1.09748       -3.85426       -5.85594
C         -2.37834       -4.22086       -5.68702
C         -2.64735       -5.61736       -5.48007
C         -3.73645       -6.21832       -4.99157
C         -4.95694       -5.64156       -4.49083
C         -5.82477       -6.45065       -3.85798
C          0.91815       -4.59065       -7.08175
C          0.86698       -5.28807       -8.23112
C          1.73644       -5.01973       -9.41591
S          3.24932       -6.13969       -9.25147
C          3.11316       -6.65552      -10.97381
C          2.14475       -5.81002      -11.71816
N          2.38640       -5.54788      -12.96700
N          1.60469       -4.65171      -13.59538
C          1.11831       -5.26240      -10.78769
S         -0.48660       -5.20066      -11.23044
C          3.77431       -7.84975      -11.49440
C          3.20600       -8.52485      -12.50065
C          3.77702       -9.72481      -13.05882
C          3.18696      -10.93395      -13.10377
C          3.58619      -12.00284      -14.05538
C          4.84699      -12.40585      -14.34531
C          5.99062      -11.80197      -13.74501
N          6.91509      -11.29878      -13.26113
C          5.12097      -13.49844      -15.20991
N          5.34832      -14.38801      -15.91745
C          2.29281      -12.61565      -14.51062
C          1.24670      -12.16989      -13.65073
C         -0.07487      -12.52156      -13.90278
C         -0.35637      -13.34767      -14.99231
C          0.66842      -13.79202      -15.83455
C          1.99568      -13.41663      -15.60759
C          1.84287      -11.29606      -12.59332
C          1.36319      -11.10078      -11.34195
C          0.09558      -11.59097      -10.91368
N         -0.93656      -11.97376      -10.55066
C          2.14349      -10.50476      -10.31028
N          2.75686      -10.04259       -9.43798
H         -7.39853      -15.43963       -5.89000
H         -4.96793      -15.70053       -5.95466
H         -3.54725      -14.98578       -4.06108
H         -4.56241      -14.11913       -1.98446
H        -10.36387      -12.30026       -2.42203
H         -9.31962      -12.22113        0.34489
H         -7.14553      -11.46496       -1.78397
H        -12.43656       -8.08629       -2.82810
H        -12.44997       -9.32937       -1.71431
H         -8.32150       -7.77639       -3.10239
H         -5.89601       -9.54291       -2.36425
H         -4.32117       -9.53863       -4.10816
H         -0.93426       -9.18090       -6.60030
H         -1.44824      -10.00071       -3.69126
H         -0.03577       -9.11482       -4.27987
H         -0.75286      -11.76622       -5.24706
H          0.19780      -11.54689       -3.93573
H         -3.18628      -10.02150       -7.13935
H         -3.39744      -10.60975       -5.49214
H         -1.44650      -11.64760       -7.36786
H         -2.87559      -12.32127       -6.96954
H          0.41223       -7.06473       -5.80890
H          0.66079       -4.65528       -4.97639
H         -0.86081       -2.79928       -5.97141
H         -3.18463       -3.49644       -5.67965
H         -5.13265       -4.57580       -4.56764
H         -6.71064       -6.01976       -3.40118
H          1.63279       -3.77409       -6.97839
H          0.13862       -6.09375       -8.32225
H          2.12863       -3.99727       -9.40517
H          2.71498       -7.19853       -8.67700
H          1.79876       -4.65584      -14.59950
H          0.60413       -4.84541      -13.48647
H          4.66706       -8.20084      -10.98538
H          2.28178       -8.18854      -12.96719
H          4.69700       -9.52026      -13.60577
H         -0.90380      -12.16449      -13.30103
H         -1.38568      -13.63734      -15.19874
H          0.42503      -14.42215      -16.68845
H          2.74657      -13.74716      -16.31756
