85

C         -8.18006        2.56208        3.32782
C         -7.88859        3.61724        2.45685
C         -7.70453        3.38808        1.08994
C         -7.84576        2.10535        0.56072
C         -8.18749        1.06090        1.41239
C         -8.32031        1.27747        2.81204
C         -8.51590       -0.05366        3.48366
C         -8.98907       -0.27653        4.73374
C         -9.33794        0.77330        5.63164
N         -9.62156        1.61994        6.37219
C         -9.23803       -1.59358        5.21186
N         -9.41781       -2.68124        5.57848
C         -8.19778       -1.07531        2.42888
C         -8.41971       -0.38880        1.13204
C         -9.01312       -0.87513        0.01446
C         -9.54775       -2.18753       -0.07285
N        -10.01938       -3.24836       -0.17895
C         -9.28880       -0.05744       -1.11811
N         -9.51104        0.59888       -2.05030
C         -7.48749       -2.20131        2.65740
C         -6.84283       -2.98808        1.64945
S         -7.48026       -4.53241        1.27363
C         -6.25503       -4.92457        0.12203
C         -5.35043       -3.87091        0.05136
C         -5.63909       -2.81789        0.98047
N         -4.74009       -1.73581        1.25762
O         -5.17900       -0.59286        1.10821
O         -3.61451       -2.05459        1.65168
N         -4.20522       -3.83352       -0.80850
O         -3.33653       -4.68767       -0.62133
O         -4.19029       -2.91788       -1.63792
C         -6.27467       -6.21111       -0.55419
S         -5.52479       -6.52403       -2.08648
C         -5.82101       -8.24198       -2.06448
C         -6.60916       -8.46933       -0.98364
C         -6.84339       -7.38003       -0.15622
N         -7.58980       -7.61110        0.97287
C         -7.86032       -8.95848        0.84430
N         -8.61649       -9.60761        1.86042
O         -8.14585       -9.55934        3.00169
O         -9.67427      -10.13711        1.51036
C         -7.30265       -9.52105       -0.31479
C         -5.31553       -9.12415       -3.09961
S         -6.21830      -10.51280       -3.58199
C         -5.16972      -10.88414       -4.90958
C         -4.03024      -10.09954       -4.80758
C         -4.13979       -9.05824       -3.83660
N         -3.11028       -8.08776       -3.61814
O         -2.55590       -8.11305       -2.51659
O         -2.85475       -7.33856       -4.56405
N         -2.85441      -10.35913       -5.58231
O         -2.34761      -11.47606       -5.44747
O         -2.49921       -9.47889       -6.36898
C         -5.52563      -11.97215       -5.77712
C         -5.30543      -12.05469       -7.11102
C         -5.35830      -13.34117       -7.89197
C         -6.26577      -14.34082       -7.77901
C         -7.33313      -14.28511       -6.84053
N         -8.18143      -14.22519       -6.04919
C         -6.26691      -15.49860       -8.61445
N         -6.27996      -16.44209       -9.28273
C         -4.24917      -13.23438       -8.90755
C         -3.72529      -11.91424       -8.87713
C         -2.59712      -11.57296       -9.61685
C         -2.05102      -12.51783      -10.48363
C         -2.60888      -13.79499      -10.57973
C         -3.69134      -14.16699       -9.77530
C         -4.60830      -11.08928       -8.00111
C         -4.92585       -9.79864       -8.26921
C         -4.21576       -9.00071       -9.21932
N         -3.64796       -8.35022       -9.98790
C         -6.09558       -9.18787       -7.73879
N         -7.07274       -8.68606       -7.36688
H         -8.25947        2.79128        4.38455
H         -7.77512        4.62644        2.84987
H         -7.43677        4.21527        0.43489
H         -7.65890        1.95870       -0.49839
H         -7.26838       -2.51619        3.67648
H         -7.86793       -6.94941        1.69006
H         -7.38604      -10.56094       -0.60192
H         -5.93030      -12.83168       -5.24347
H         -2.12595      -10.59618       -9.55281
H         -1.18979      -12.25678      -11.09629
H         -2.18354      -14.51491      -11.27692
H         -4.05125      -15.18433       -9.86747
