101

C         -2.02650       -0.04490        5.72130
C         -1.13911        0.82299        5.07700
C         -1.27732        1.11486        3.71451
C         -2.31895        0.56224        2.97052
C         -3.23118       -0.26134        3.61422
C         -3.07896       -0.58595        4.99545
C         -4.12310       -1.59907        5.36908
C         -4.56740       -1.93403        6.60238
C         -4.04247       -1.35353        7.78726
N         -3.61424       -0.88090        8.75942
C         -5.64068       -2.85779        6.79070
N         -6.49070       -3.63300        6.92178
C         -4.65954       -2.07476        4.06564
C         -4.42221       -0.98558        3.09201
C         -5.24803       -0.58658        2.09575
C         -6.53650       -1.17310        1.92055
N         -7.60351       -1.62193        1.81753
C         -4.94029        0.50069        1.23192
N         -4.67733        1.37822        0.51779
C         -4.88455       -3.37441        3.79403
C         -4.95347       -3.92280        2.48573
S         -5.74920       -5.41493        2.27396
C         -5.13301       -5.55799        0.66450
C         -4.54618       -4.34090        0.32065
N         -4.42795       -3.43570        1.38683
C         -4.01079       -3.95587       -0.99118
O         -3.57755       -4.73754       -1.82681
O         -4.02997       -2.59646       -1.12158
C         -3.29653       -2.02777       -2.20456
C         -5.30292       -6.75958       -0.08472
C         -5.75405       -7.90874        0.45939
C         -5.87787       -9.12969       -0.26403
S         -5.31592       -9.26362       -1.87149
C         -5.81737      -10.87407       -2.04123
C         -6.45134      -11.32657       -0.89064
C         -6.41927      -10.33860        0.16605
C         -6.98344      -10.61112        1.54383
C         -7.30278      -12.09771        1.79451
C         -6.08322      -12.82394        2.19860
N         -5.13120      -13.40697        2.51295
C         -7.95003      -12.77758        0.57200
C         -9.28324      -12.18787        0.32746
N        -10.32845      -11.70978        0.18412
C         -7.07240      -12.68731       -0.69114
C         -5.60383      -11.56168       -3.28985
S         -4.33109      -11.20571       -4.38129
C         -4.90536      -12.40472       -5.49008
C         -6.00773      -13.04201       -4.91287
N         -6.38602      -12.53913       -3.66447
C         -6.76210      -14.17902       -5.45174
O         -6.50647      -14.76462       -6.49753
O         -7.79033      -14.52703       -4.62516
C         -8.55724      -15.66329       -5.01249
C         -4.18944      -12.55495       -6.71885
C         -4.81518      -12.90096       -7.85310
C         -4.16689      -13.12707       -9.13050
C         -4.77003      -13.50076      -10.28074
C         -4.07903      -14.03195      -11.49650
C         -2.86318      -13.66805      -11.97405
C         -2.06200      -12.66331      -11.35140
N         -1.39920      -11.86476      -10.83804
C         -2.28488      -14.23292      -13.14345
N         -1.79507      -14.68989      -14.09186
C         -5.04939      -15.01709      -12.10732
C         -6.26705      -14.98696      -11.37026
C         -7.28743      -15.89668      -11.62743
C         -7.15584      -16.76345      -12.71031
C         -6.00723      -16.73130      -13.50496
C         -4.94139      -15.87875      -13.19374
C         -6.20953      -13.82660      -10.43945
C         -7.26774      -13.03295      -10.14630
C         -8.62021      -13.42051      -10.35689
N         -9.72668      -13.74821      -10.49674
C         -7.07778      -11.67760       -9.73227
N         -6.92170      -10.57152       -9.44241
H         -1.84383       -0.28246        6.76362
H         -0.31498        1.26332        5.63555
H         -0.55821        1.77025        3.22678
H         -2.37210        0.77302        1.90752
H         -4.87941       -4.11444        4.58899
H         -3.82135       -1.12697       -2.53612
H         -3.17917       -2.70072       -3.05757
H         -2.31785       -1.73132       -1.81844
H         -5.00492       -6.71613       -1.12982
H         -6.05086       -7.95316        1.50141
H         -7.90613      -10.02568        1.65009
H         -6.28963      -10.24711        2.31335
H         -7.99710      -12.15000        2.64625
H         -8.10788      -13.84327        0.79118
H         -7.67381      -12.96223       -1.56481
H         -6.25727      -13.41908       -0.61676
H         -9.61240      -15.38229       -4.98831
H         -8.38024      -16.45381       -4.27958
H         -8.32022      -16.04007       -6.01109
H         -3.12153      -12.34544       -6.72458
H         -5.88324      -13.05856       -7.82152
H         -3.08327      -13.06410       -9.06575
H         -8.18992      -15.94928      -11.02673
H         -7.96114      -17.45501      -12.95087
H         -5.93634      -17.38687      -14.37127
H         -4.06958      -15.92367      -13.83451
