130

C         -1.93004      -11.86685        8.19363
C         -1.18172      -12.62523        7.28740
C         -1.09296      -12.25723        5.93665
C         -1.72471      -11.10551        5.46492
C         -2.45264      -10.34092        6.36333
C         -2.57897      -10.73067        7.72933
C         -3.59152       -9.83369        8.37883
C         -3.71745       -9.54468        9.69506
C         -2.86952      -10.11715       10.68773
N         -2.17195      -10.58046       11.49399
C         -4.65392       -8.57248       10.14849
N         -5.43248       -7.78896       10.50143
C         -4.30887       -9.19591        7.23007
C         -3.29966       -9.13260        6.14952
C         -2.94539       -8.05591        5.40874
C         -3.56333       -6.77960        5.58339
N         -4.00416       -5.71998        5.73402
C         -1.80547       -8.06712        4.55281
N         -0.87708       -8.07698        3.85668
C         -5.65593       -9.17440        7.11202
C         -6.37544       -9.02099        5.88066
S         -6.84298       -7.44032        5.37382
C         -7.63447       -7.98004        3.94511
C         -7.58804       -9.35748        3.87528
C         -6.92584       -9.95611        5.01217
C         -6.84236      -11.34916        5.19100
C         -7.44375      -12.10753        4.12921
N         -7.39656      -13.57241        4.26803
O         -6.71790      -14.02660        5.19848
O         -8.04943      -14.26719        3.48596
C         -8.06339      -11.49086        3.00015
N         -8.62784      -12.25249        1.89824
O         -7.82412      -12.80869        1.14140
O         -9.85295      -12.16653        1.73496
C         -8.15026      -10.09280        2.82042
C         -8.20954       -7.00169        3.08629
C         -9.37142       -7.24121        2.46005
C         -9.96859       -6.37596        1.46830
C        -10.65810       -6.97048        0.45977
C        -11.20062       -6.17482       -0.61915
C        -11.86796       -6.50025       -1.76582
C        -12.54211       -7.78578       -2.28564
C        -11.97544       -9.10494       -1.68249
N        -12.58593      -10.34770       -2.17523
C        -14.09962       -7.69279       -2.10451
N        -14.84699       -8.86429       -2.59867
C        -11.63847       -5.29789       -2.59784
C        -11.48583       -5.17574       -3.92675
C        -10.86336       -3.91785       -4.53964
C        -10.68221       -2.74906       -3.57274
C        -10.87423       -2.87080       -2.25240
C        -11.16437       -4.19064       -1.77725
C        -10.88451       -4.72383       -0.58996
C        -10.27521       -4.11275        0.55685
C         -9.85366       -4.90775        1.54273
C        -11.64940       -3.50397       -5.74285
C        -12.68417       -2.65309       -5.70340
C        -13.32390       -2.28823       -6.90430
S        -12.74842       -0.92117       -7.74775
C        -13.98032       -1.00002       -8.96654
C        -14.73584       -2.14946       -8.77586
C        -14.37843       -2.86453       -7.56754
C        -15.01745       -4.01703       -7.09414
C        -16.06259       -4.42340       -7.95128
N        -16.80778       -5.59704       -7.53131
O        -16.15962       -6.63372       -7.34226
O        -18.01850       -5.44859       -7.33456
C        -16.42285       -3.73039       -9.14660
N        -17.48141       -4.26197       -9.98146
O        -17.29313       -5.38332      -10.46599
O        -18.45471       -3.52854      -10.18600
C        -15.77944       -2.55349       -9.62309
C        -14.06666        0.03200       -9.95776
C        -13.70711        1.30221       -9.69384
C        -13.86070        2.38979      -10.63524
C        -13.15245        3.53612      -10.70926
C        -13.18400        4.41437      -11.91105
C        -14.28246        4.89315      -12.53515
C        -15.60231        4.57449      -12.08923
N        -16.66895        4.29303      -11.72996
C        -14.21233        5.79345      -13.63642
N        -14.16530        6.51940      -14.53319
C        -11.74567        4.74352      -12.18293
C        -10.96787        4.36180      -11.05016
C         -9.58093        4.44586      -11.08466
C         -8.96688        4.95425      -12.23104
C         -9.72985        5.35425      -13.33400
C        -11.12247        5.23805      -13.32174
C        -11.89858        3.86574       -9.98833
C        -11.71150        3.98368       -8.65263
C        -10.46539        4.37447       -8.07904
N         -9.44558        4.67320       -7.60571
C        -12.79452        3.85090       -7.73613
N        -13.68074        3.75922       -6.99269
H         -2.01679      -12.21945        9.21632
H         -0.68719      -13.53469        7.62609
H         -0.54193      -12.89119        5.24389
H         -1.66722      -10.86127        4.40878
H         -6.27888       -9.42656        7.96787
H         -6.38168      -11.80968        6.05712
H         -8.61152       -9.67452        1.93233
H         -7.67444       -6.06473        2.94332
H         -9.92970       -8.15530        2.63701
H        -10.65171       -8.04659        0.36130
H        -12.35988       -7.84678       -3.36666
H        -12.11360       -9.10748       -0.59950
H        -10.90484       -9.16673       -1.90354
H        -13.60800      -10.19759       -2.17520
H        -12.45802      -11.08268       -1.47739
H        -14.47864       -6.81796       -2.64457
H        -14.35332       -7.55787       -1.04597
H        -14.50119       -9.12130       -3.52766
H        -15.83340       -8.63485       -2.72107
H        -11.64826       -6.02159       -4.58528
H         -9.85246       -4.18245       -4.88058
H        -10.36620       -1.79037       -3.97635
H        -10.73393       -2.04426       -1.56655
H        -10.14810       -3.03209        0.60854
H         -9.37510       -4.47787        2.41313
H        -11.31818       -3.93161       -6.68745
H        -13.03763       -2.21557       -4.77327
H        -14.75904       -4.54094       -6.18011
H        -16.07249       -2.05227      -10.53721
H        -14.46362       -0.23257      -10.93367
H        -13.32354        1.55269       -8.71364
H        -14.60855        2.17810      -11.39947
H         -8.95217        4.11115      -10.26612
H         -7.88146        5.02895      -12.27375
H         -9.22962        5.73917      -14.22115
H        -11.66505        5.51514      -14.21908
