105

C         -0.18099       -7.63112       -3.44191
C         -0.41480       -8.82821       -4.13400
C         -1.58805       -9.02359       -4.87925
C         -2.52449       -8.00106       -5.00665
C         -2.25731       -6.79789       -4.37210
C         -1.11945       -6.61547       -3.53317
C         -1.25316       -5.27213       -2.85102
C         -0.28819       -4.53956       -2.25365
C          1.05827       -4.98918       -2.15653
N          2.15888       -5.35235       -2.08998
C         -0.54147       -3.22602       -1.76421
N         -0.74569       -2.16147       -1.34982
C         -2.65600       -4.84291       -3.13789
C         -2.96636       -5.49466       -4.42168
C         -3.11374       -4.84532       -5.60496
C         -3.08505       -3.42204       -5.67572
N         -3.01089       -2.26741       -5.77078
C         -3.02964       -5.52244       -6.85841
N         -2.95635       -6.08028       -7.87390
C         -3.53056       -4.34224       -2.23739
C         -5.00552       -4.34504       -2.34884
C         -5.71886       -3.31449       -2.94496
C         -5.29206       -1.97609       -3.33463
O         -4.18838       -1.54667       -3.06271
N         -6.37153       -1.37436       -3.93688
C         -7.49177       -2.15910       -3.86903
O         -8.62634       -1.95089       -4.25262
C         -7.09854       -3.35830       -3.14586
C         -7.89696       -4.35110       -2.62761
C         -7.21991       -5.33060       -1.91698
C         -5.81784       -5.35786       -1.80799
C         -5.37440       -6.51420       -1.02227
O         -4.20938       -6.80040       -0.81564
S         -6.72520       -7.44553       -0.40813
C         -7.88461       -6.39271       -1.17068
O         -9.09435       -6.49534       -1.07876
C         -6.40096       -0.11227       -4.46102
C         -5.59946        0.88443       -4.05945
C         -5.58545        2.12807       -4.71916
S         -5.28817        3.63260       -3.95341
C         -5.51786        4.58930       -5.42337
C         -5.63526        3.67863       -6.43565
C         -5.65925        2.34963       -6.04532
N         -5.72485        1.38295       -7.00985
C         -5.76893        2.14920       -8.14988
N         -5.83095        1.46982       -9.40587
O         -5.87874        0.22451       -9.36035
O         -5.83920        2.17154      -10.42079
C         -5.72540        3.52877       -7.86388
C         -5.43957        6.06989       -5.33045
C         -4.76743        6.86074       -6.28140
C         -4.02775        6.55029       -7.51995
O         -3.63781        5.43867       -7.82068
N         -3.74479        7.74010       -8.16088
C         -4.01271        8.80041       -7.33140
O         -3.83106        9.99215       -7.50391
C         -4.66365        8.25298       -6.15342
C         -5.13765        8.95916       -5.07192
C         -5.78499        8.20302       -4.11370
C         -5.98900        6.81588       -4.24683
C         -6.89730        6.37118       -3.16545
O         -7.61410        5.38988       -3.20030
S         -6.99390        7.54843       -1.86440
C         -6.30959        8.77965       -2.87935
O         -6.23992        9.96327       -2.60141
C         -3.22457        7.91366       -9.41941
C         -3.24303        6.98240      -10.38967
C         -2.75392        7.18292      -11.73494
C         -3.11265        8.13414      -12.62336
C         -2.34842        8.45230      -13.85474
C         -1.84953        7.56698      -14.75197
C         -2.00457        6.15779      -14.58790
N         -2.12262        5.01338      -14.44355
C         -1.19959        7.96766      -15.94708
N         -0.66023        8.29149      -16.92588
C         -2.38537        9.95197      -13.95423
C         -3.34455       10.45040      -13.02215
C         -3.52686       11.81761      -12.85453
C         -2.79121       12.69606      -13.65033
C         -1.86324       12.21154      -14.57837
C         -1.64083       10.83894      -14.72209
C         -4.00739        9.28450      -12.36968
C         -5.27543        9.24168      -11.89618
C         -6.04981       10.40945      -11.65112
N         -6.67105       11.35866      -11.40876
C         -5.95704        8.00286      -11.71523
N         -6.54064        7.00495      -11.60356
H          0.72413       -7.54816       -2.85073
H          0.31948       -9.63079       -4.08019
H         -1.75889       -9.97806       -5.37413
H         -3.42193       -8.15685       -5.59748
H         -3.18186       -4.02902       -1.25322
H         -8.98002       -4.32379       -2.71513
H         -7.15993        0.02448       -5.23133
H         -4.96263        0.76509       -3.18709
H         -5.71282        0.37451       -6.91497
H         -5.69935        4.30171       -8.62139
H         -5.01992       10.03574       -4.98779
H         -2.84037        8.91167       -9.61987
H         -3.64189        5.98670      -10.20529
H         -1.97471        6.45850      -11.97904
H         -4.21152       12.23619      -12.12432
H         -2.93733       13.76956      -13.54415
H         -1.29763       12.91536      -15.18686
H         -0.88021       10.51773      -15.42473
