96

C         -2.06327       -0.83885       -2.90655
C         -2.78589       -0.15250       -3.89053
C         -3.25091       -0.80959       -5.03524
C         -2.95828       -2.15459       -5.24472
C         -2.17818       -2.81645       -4.30464
C         -1.76681       -2.18206       -3.10018
C         -1.10896       -3.21313       -2.21224
C         -0.35521       -2.99680       -1.10678
C         -0.07322       -1.69890       -0.61194
N          0.16325       -0.64106       -0.20144
C          0.26513       -4.07334       -0.39805
N          0.74326       -4.96242        0.15919
C         -1.38618       -4.52424       -2.86741
C         -1.63601       -4.20167       -4.29866
C         -1.13138       -4.82498       -5.38978
C         -0.24839       -5.93428       -5.26902
N          0.51099       -6.80293       -5.14668
C         -1.27542       -4.30058       -6.70813
N         -1.40095       -3.85969       -7.77388
C         -1.71211       -5.66447       -2.22737
C         -2.35821       -6.78193       -2.84931
C         -1.74129       -8.03902       -3.34625
N         -2.44160       -8.71776       -4.21386
C         -3.56696       -7.96943       -4.35097
C         -3.55495       -6.86033       -3.43222
C         -4.77192       -6.02247       -3.63814
S         -5.37695       -4.80510       -2.68671
C         -5.31325       -6.61151       -4.89744
C         -4.55595       -7.80151       -5.22365
N         -4.98132       -8.32474       -6.39925
C         -5.94918       -7.52236       -6.74460
C         -6.25103       -6.39749       -5.82132
C         -7.26826       -5.37198       -5.99975
C         -8.62890       -5.55093       -5.67566
O         -9.14011       -6.70381       -5.12741
C         -8.57210       -7.17290       -3.90399
C         -9.57892       -4.58514       -6.09610
C         -9.15303       -3.40744       -6.72919
C         -7.80298       -3.20058       -6.99898
C         -6.87509       -4.18681       -6.64839
O         -7.27378       -2.10750       -7.62964
C         -8.18426       -1.08099       -8.01495
C        -11.01220       -4.79991       -5.95004
C        -11.80264       -4.75101       -4.69517
N        -13.05548       -5.10145       -4.77589
C        -13.19130       -5.43699       -6.08478
C        -11.96124       -5.19420       -6.80546
C        -12.16981       -5.57178       -8.24049
S        -11.21598       -5.23879       -9.55688
C        -13.50708       -6.25029       -8.19075
C        -14.07609       -6.03380       -6.87674
N        -15.30501       -6.60185       -6.78482
C        -15.44673       -7.17849       -7.94448
C        -14.31786       -7.02823       -8.90740
C        -14.26045       -7.63667      -10.20377
C        -13.32582       -8.47855      -10.69145
C        -13.17480       -8.82699      -12.13413
C        -14.14321       -9.23937      -12.98657
C        -15.50059       -9.34560      -12.57174
N        -16.60133       -9.41349      -12.20917
C        -13.86654       -9.68329      -14.30970
N        -13.64017      -10.04727      -15.39082
C        -11.69540       -8.81950      -12.37767
C        -11.03083       -8.84029      -11.11849
C         -9.64829       -8.72888      -11.04525
C         -8.91957       -8.63214      -12.23181
C         -9.56894       -8.62826      -13.47200
C        -10.96205       -8.70892      -13.55233
C        -12.06487       -8.91179      -10.04241
C        -11.92396       -9.51815       -8.84054
C        -10.67617      -10.02310       -8.37695
N         -9.65775      -10.42651       -7.99643
C        -13.05057       -9.81986       -8.02371
N        -13.98354      -10.08080       -7.38490
H         -1.77359       -0.29092       -2.01818
H         -3.00896        0.90408       -3.75410
H         -3.84269       -0.26513       -5.76893
H         -3.34869       -2.64442       -6.13138
H         -1.63021       -5.76682       -1.14742
H         -0.72647       -8.31211       -3.01769
H         -6.52041       -7.61719       -7.68133
H         -7.50407       -7.02173       -3.80335
H         -8.73778       -8.25365       -3.85889
H         -9.05680       -6.70640       -3.04195
H         -9.89857       -2.67470       -7.02558
H         -5.83381       -4.03403       -6.93101
H         -7.61427       -0.29368       -8.51751
H         -8.66595       -0.63632       -7.13748
H         -8.92849       -1.45583       -8.72595
H        -11.31737       -4.41516       -3.76661
H        -16.32745       -7.77218       -8.23528
H        -15.08227       -7.31125      -10.84187
H         -9.11416       -8.68186      -10.10211
H         -7.83560       -8.53993      -12.19238
H         -8.98078       -8.53678      -14.38377
H        -11.42352       -8.65096      -14.53240
