108

C         -7.01136       -2.84942      -11.85957
C         -7.89220       -1.77818      -12.03816
C         -9.16683       -1.78596      -11.45638
C         -9.59801       -2.87425      -10.69800
C         -8.73934       -3.95333      -10.54356
C         -7.43094       -3.94004      -11.10923
C         -6.68859       -5.14753      -10.61951
C         -5.58672       -5.72720      -11.14814
C         -4.93417       -5.20543      -12.30431
N         -4.40095       -4.78260      -13.24297
C         -5.04650       -6.93305      -10.62318
N         -4.60410       -7.91027      -10.17570
C         -7.50608       -5.64756       -9.47825
C         -8.89129       -5.20878       -9.75695
C        -10.02487       -5.93741       -9.62515
C        -10.00242       -7.29468       -9.18892
N        -10.00282       -8.41698       -8.88672
C        -11.28707       -5.46110      -10.08273
N        -12.31072       -5.06202      -10.45283
C         -6.97310       -5.94482       -8.27792
C         -7.69094       -5.84320       -7.04719
S         -8.13659       -7.27283       -6.22319
C         -8.84370       -6.44735       -4.86254
C         -8.71705       -5.07737       -5.03917
C         -8.01771       -4.74244       -6.27848
C         -7.66542       -3.42404       -6.62018
F         -6.96296       -3.09477       -7.70939
C         -8.07288       -2.44962       -5.69749
F         -7.77307       -1.16446       -5.94555
C         -8.76935       -2.75933       -4.50805
F         -9.12074       -1.75051       -3.69344
C         -9.09585       -4.07115       -4.12223
F         -9.68565       -4.27591       -2.94335
C         -9.29826       -7.31869       -3.82382
C        -10.21306       -7.00689       -2.89409
C        -10.50343       -7.83775       -1.75783
S         -9.33415       -8.99551       -1.23090
C        -10.19411       -9.44012        0.18454
C        -11.27767       -8.59878        0.35569
C        -11.56158       -7.81409       -0.85388
C        -12.73876       -7.04137       -1.01197
C        -13.27379       -6.35939       -2.24117
F        -12.96713       -6.99737       -3.40393
F        -14.63612       -6.27194       -2.23813
F        -12.82568       -5.08201       -2.37633
C        -13.49164       -6.98389        0.19468
C        -13.16330       -7.67016        1.39877
C        -12.07143       -8.54917        1.52292
O        -11.72111       -9.18549        2.68014
C        -12.81418       -9.60687        3.48985
C         -9.64022      -10.54058        0.90064
C        -10.39273      -11.57298        1.32109
C         -9.84189      -12.73586        1.96008
S         -8.13853      -13.05018        1.92297
C         -8.20949      -14.44393        2.92821
C         -9.52092      -14.68227        3.28717
C        -10.46129      -13.76037        2.65880
C        -11.85271      -13.88050        2.83201
F        -12.75994      -13.08251        2.25962
C        -12.24696      -14.93903        3.66845
F        -13.55904      -15.13625        3.87651
C        -11.32963      -15.80070        4.31672
F        -11.81178      -16.75854        5.12531
C         -9.93964      -15.70400        4.15716
F         -9.11724      -16.52128        4.82217
C         -6.96542      -15.09165        3.18969
C         -6.84913      -16.42578        3.16806
C         -5.59241      -17.11476        3.36189
C         -5.08032      -18.02915        2.51479
C         -4.09268      -19.07494        2.89051
C         -2.99587      -18.91527        3.67397
C         -2.64896      -17.65697        4.24750
N         -2.37825      -16.63326        4.72126
C         -2.07644      -19.96847        3.93430
N         -1.32602      -20.82389        4.15964
C         -4.52388      -20.30213        2.13581
C         -5.52240      -19.93494        1.18457
C         -6.14753      -20.89779        0.39995
C         -5.74212      -22.22722        0.51544
C         -4.74804      -22.59085        1.42872
C         -4.14939      -21.63566        2.25735
C         -5.69310      -18.45480        1.23326
C         -6.06677      -17.65192        0.20846
C         -6.63758      -18.14704       -0.99673
N         -7.13417      -18.54334       -1.96645
C         -5.78189      -16.25379        0.21119
N         -5.50163      -15.12828        0.17576
H         -6.01512       -2.77200      -12.28106
H         -7.57313       -0.91032      -12.61364
H         -9.82058       -0.92452      -11.58150
H        -10.57409       -2.83288      -10.22553
H         -5.89868       -6.08193       -8.16188
H         -8.83043       -8.30187       -3.79970
H        -10.73335       -6.06280       -2.94692
H        -14.39411       -6.36598        0.21044
H        -13.80878       -7.48018        2.25409
H        -13.49956      -10.24346        2.92044
H        -13.34298       -8.75614        3.93041
H        -12.40913      -10.19834        4.31640
H         -8.55744      -10.55527        0.98854
H        -11.47056      -11.52773        1.18715
H         -6.07330      -14.47296        3.28913
H         -7.71099      -17.06712        2.99611
H         -5.17163      -16.94878        4.35210
H         -6.94297      -20.66284       -0.29925
H         -6.20539      -22.98851       -0.10982
H         -4.44546      -23.63411        1.50323
H         -3.41510      -21.98196        2.97515
