86

C         -2.41240       -6.66229        7.01572
C         -3.13034       -5.85958        7.90916
C         -4.51395       -5.68534        7.77360
C         -5.21758       -6.33459        6.75992
C         -4.51784       -7.17272        5.90377
C         -3.10107       -7.32137        6.00723
C         -2.61997       -8.17022        4.86589
C         -1.43900       -8.81383        4.72364
C         -0.40846       -8.74055        5.69878
N          0.43150       -8.69230        6.49712
C         -1.17176       -9.66410        3.60458
N         -0.96691      -10.33951        2.68014
C         -3.79361       -8.26656        3.95008
C         -4.98321       -8.05262        4.79562
C         -6.09075       -8.82932        4.85936
C         -6.14558      -10.07752        4.17314
N         -6.15981      -11.12638        3.67705
C         -7.16169       -8.57047        5.75810
N         -8.04962       -8.33599        6.46682
C         -3.70971       -8.10823        2.61383
C         -4.79373       -7.74944        1.76324
S         -5.78403       -8.96442        1.02276
C         -6.62470       -7.82759        0.08126
O         -7.53712       -8.12113       -0.63552
C         -6.13148       -6.56505        0.25875
C         -5.14134       -6.52419        1.23466
C         -4.65869       -5.25788        1.43503
O         -3.81461       -4.97044        2.23163
S         -5.39850       -4.13132        0.39179
C         -6.34692       -5.36106       -0.37458
C         -7.09660       -5.10078       -1.57000
N         -8.25816       -5.78219       -1.85958
C         -8.54560       -5.57708       -3.17400
C         -9.41458       -6.01027       -4.19678
C         -8.96488       -5.36135       -5.33369
N         -7.91207       -4.53473       -5.00870
C         -7.65418       -4.69282       -3.67759
C         -6.75408       -4.30626       -2.65636
C         -9.33393       -5.41544       -6.69454
C        -10.55879       -5.81871       -7.05659
C        -10.93898       -5.91891       -8.42266
S        -12.58402       -5.53735       -8.85563
C        -12.32045       -5.89841      -10.49650
O        -13.17322       -5.82004      -11.33241
C        -11.04861       -6.34380      -10.72137
C        -10.27266       -6.33068       -9.55978
C         -9.00317       -6.77860       -9.78858
O         -8.11236       -6.82477       -8.99216
S         -8.82548       -7.36758      -11.36341
C        -10.40724       -6.81604      -11.85369
C        -10.90469       -7.03843      -13.17896
C        -10.19258       -7.05131      -14.32721
C        -10.67648       -7.73269      -15.56289
C        -11.87991       -7.57554      -16.16144
C        -12.87702       -6.70602      -15.63967
N        -13.68662       -5.99326      -15.20920
C        -12.19687       -8.20103      -17.40357
N        -12.45455       -8.71192      -18.41444
C         -9.48710       -8.49647      -16.06789
C         -8.32444       -8.00327      -15.41026
C         -7.09504       -8.63056      -15.57216
C         -7.01036       -9.72553      -16.43380
C         -8.14447      -10.19276      -17.10907
C         -9.39256       -9.59044      -16.91916
C         -8.73321       -6.87298      -14.52671
C         -7.98001       -5.80272      -14.17833
C         -6.59491       -5.70750      -14.49118
N         -5.46049       -5.64105      -14.72689
C         -8.54291       -4.68309      -13.49741
N         -9.00159       -3.78971      -12.91591
H         -1.33672       -6.72554        7.13585
H         -2.60393       -5.34583        8.71196
H         -5.04487       -5.03470        8.46621
H         -6.28510       -6.16249        6.66587
H         -2.73587       -8.06216        2.12913
H         -8.73662       -6.47140       -1.28953
H        -10.21011       -6.73893       -4.12530
H         -7.36602       -3.94627       -5.62514
H         -5.90203       -3.64669       -2.74906
H         -8.58867       -5.12994       -7.43115
H        -11.30304       -6.05392       -6.29835
H        -11.95622       -7.32548      -13.20228
H         -6.20570       -8.32634      -15.02891
H         -6.05690      -10.23409      -16.56816
H         -8.05674      -11.05462      -17.76895
H        -10.25202      -10.02387      -17.41925
