108

C         -3.55971       -4.13799        1.19863
C         -3.53739       -5.24843        0.34254
C         -3.85232       -5.12454       -1.01649
C         -4.11606       -3.87507       -1.56649
C         -4.09529       -2.77046       -0.73116
C         -3.87572       -2.89549        0.67054
C         -4.15837       -1.55740        1.31222
C         -3.77729       -1.10992        2.52762
C         -3.00515       -1.90565        3.41866
N         -2.36717       -2.55780        4.13559
C         -4.06051        0.22096        2.95281
N         -4.30768        1.29842        3.30396
C         -4.83069       -0.77399        0.24008
C         -4.29681       -1.32853       -1.01284
C         -3.60347       -0.65309       -1.95912
C         -3.26517        0.71942       -1.77249
N         -2.89511        1.80344       -1.57334
C         -2.97071       -1.32148       -3.04667
N         -2.47480       -1.88340       -3.93197
C         -5.99612       -0.10014        0.37515
C         -6.88527        0.12721       -0.72604
S         -6.84243        1.60380       -1.59829
C         -8.05758        1.09724       -2.68705
C         -8.55814       -0.14804       -2.37789
C         -7.87141       -0.71386       -1.23907
C         -8.17892       -2.11877       -0.78682
C         -8.77384       -2.98909       -1.92514
C         -9.97741       -2.24702       -2.55050
C         -9.58802       -0.90290       -3.18282
C         -7.78731       -3.49019       -3.01113
C         -6.70118       -2.78243       -3.37840
C         -7.95694       -4.71058       -3.74540
N         -8.59661       -5.76608       -3.13374
C         -8.73846       -6.76455       -4.05294
C         -9.30871       -8.04482       -4.22920
C         -9.04423       -8.36880       -5.54931
N         -8.29412       -7.37008       -6.12836
C         -8.13801       -6.38061       -5.20211
C         -7.59114       -5.09239       -5.03156
C         -9.40640       -9.45103       -6.37981
C         -9.66232      -10.66676       -5.87367
C        -10.06177      -11.76139       -6.69986
S         -9.52574      -11.88877       -8.33811
C        -10.36803      -13.33611       -8.59563
C        -11.03354      -13.76152       -7.47055
C        -10.84856      -12.85823       -6.36339
C        -11.48552      -13.14007       -5.02324
C        -11.78375      -14.65672       -4.82957
C        -12.58400      -15.15728       -6.05672
C        -11.81612      -15.03281       -7.37341
C        -10.57675      -15.55556       -4.45524
C         -9.34106      -15.06162       -4.29477
C        -10.93615      -16.92525       -4.07281
C        -10.47018      -18.13030       -4.47510
C        -11.29303      -19.38068       -4.36700
C        -12.02876      -19.78849       -3.30400
C        -12.07353      -19.05100       -2.08508
N        -12.12954      -18.43940       -1.10074
C        -12.79233      -20.98841       -3.30181
N        -13.43586      -21.95482       -3.29586
C        -11.06024      -20.11484       -5.66318
C        -10.00044      -19.47597       -6.37122
C         -9.62477      -19.90978       -7.63802
C        -10.25146      -21.03255       -8.17862
C        -11.26373      -21.68941       -7.47322
C        -11.68726      -21.22249       -6.22441
C         -9.42420      -18.41996       -5.48248
C         -8.09346      -18.21777       -5.36337
C         -7.14765      -18.61596       -6.34991
N         -6.37279      -18.93864       -7.16056
C         -7.51735      -17.80145       -4.13225
N         -7.02167      -17.51919       -3.12579
H         -3.34881       -4.29630        2.24989
H         -3.29030       -6.23134        0.73963
H         -3.88448       -6.00656       -1.65348
H         -4.34568       -3.80064       -2.62286
H         -6.41445        0.10510        1.35732
H         -8.33899        1.73190       -3.51709
H         -8.91448       -2.05459        0.02736
H         -7.29152       -2.60945       -0.37484
H         -9.17348       -3.87671       -1.41733
H        -10.71988       -2.06293       -1.76123
H        -10.48266       -2.87565       -3.29546
H        -10.48947       -0.29131       -3.31046
H         -9.18559       -1.08502       -4.18749
H         -6.44036       -1.82986       -2.94711
H         -6.00842       -3.12267       -4.14239
H         -8.94529       -5.83438       -2.18722
H         -9.87848       -8.62279       -3.51645
H         -7.92829       -7.32180       -7.07073
H         -7.05202       -4.50321       -5.76068
H         -9.49245       -9.25732       -7.44636
H         -9.58399      -10.84166       -4.80393
H        -10.31975      -13.82035       -9.56039
H        -12.43254      -12.58443       -4.97671
H        -10.87568      -12.76054       -4.19556
H        -12.46480      -14.70582       -3.96599
H        -13.50333      -14.55837       -6.13012
H        -12.91580      -16.19356       -5.92499
H        -12.52646      -15.08891       -8.20754
H        -11.12564      -15.87743       -7.47825
H         -9.07936      -14.03527       -4.52455
H         -8.53762      -15.61607       -3.84099
H        -11.84555      -16.90128       -3.47063
H         -8.85076      -19.41888       -8.21966
H         -9.94306      -21.40736       -9.15314
H        -11.73321      -22.57171       -7.90557
H        -12.49729      -21.75606       -5.74156
