99

C        -12.18270       -4.46134        4.85330
C        -12.40106       -5.84187        4.81870
C        -11.97193       -6.61019        3.72997
C        -11.33756       -6.01062        2.64098
C        -11.15923       -4.63325        2.64896
C        -11.56075       -3.85282        3.77049
C        -11.10340       -2.43943        3.55338
C        -11.57218       -1.31756        4.14336
C        -12.57335       -1.34429        5.15332
N        -13.38678       -1.36502        5.98167
C        -11.15072       -0.01468        3.73625
N        -10.80361        1.03967        3.41115
C        -10.12597       -2.52457        2.42856
C        -10.51697       -3.72353        1.65742
C        -10.52104       -3.86207        0.31169
C        -10.13138       -2.79488       -0.54637
N         -9.83516       -1.91910       -1.25068
C        -10.95800       -5.05073       -0.33559
N        -11.28866       -6.02925       -0.86585
C         -8.95630       -1.85248        2.42590
C         -7.79451       -2.08515        1.62228
C         -7.21653       -3.20755        1.05362
N         -7.77856       -4.45420        1.08935
C         -7.04889       -5.36042        0.38610
C         -5.85071       -5.08685       -0.26761
N         -5.22860       -3.88591       -0.25510
C         -5.94895       -2.93383        0.41259
C         -5.53061       -1.62498        0.58118
S         -6.80162       -0.70595        1.27434
C         -4.28401       -1.01280        0.15447
S         -3.66119       -1.49930       -1.36080
C         -3.45386       -0.06224        0.74579
C         -3.64555        0.57929        2.06228
O         -4.49755        0.26926        2.88373
C         -2.67025        1.63132        2.32276
C         -2.62444        2.49767        3.39606
N         -1.56484        3.34922        3.21224
C         -1.23083        4.45896        4.09100
C         -2.33563        5.50265        4.14670
C         -0.88485        2.99652        2.07442
C         -1.56004        1.94107        1.48802
C         -1.24811        1.23932        0.25261
O         -0.24287        1.47571       -0.40641
C         -2.28412        0.24145       -0.10347
C         -2.27215       -0.51801       -1.26538
C         -1.28112       -0.59911       -2.28821
C         -1.57316       -0.86986       -3.57330
C         -0.56288       -0.93591       -4.57694
C          0.76419       -1.30197       -4.50972
N          1.34911       -1.77505       -3.36984
C          2.67461       -1.98835       -3.52948
C          3.37694       -1.73650       -4.70444
N          2.82692       -1.26945       -5.85603
C          1.47651       -1.08263       -5.74432
C          0.65849       -0.67917       -6.79046
S         -0.96356       -0.50026       -6.19898
C          0.90368       -0.32559       -8.16350
C          1.89251       -0.80935       -8.94458
C          2.92228       -1.80061       -8.58355
C          2.72203       -3.08018       -8.19494
C          1.41127       -3.62938       -8.08877
N          0.34648       -4.08557       -8.01909
C          3.80096       -3.96078       -7.90833
N          4.68586       -4.66702       -7.65127
C          4.21326       -1.15126       -8.93412
C          3.94984       -0.13496       -9.89467
C          4.98626        0.66423      -10.35813
C          6.27310        0.46131       -9.84688
C          6.51394       -0.50381       -8.86026
C          5.48049       -1.31404       -8.39193
C          2.46278       -0.05680      -10.09929
C          1.79941        0.46357      -11.15548
C          2.47427        1.05919      -12.25765
N          3.02871        1.54176      -13.15581
C          0.38308        0.36633      -11.26879
N         -0.77168        0.29097      -11.35015
H        -12.48470       -3.91795        5.74168
H        -12.88948       -6.33043        5.66005
H        -12.12287       -7.68803        3.73954
H        -10.97820       -6.63993        1.83351
H         -8.80373       -1.07717        3.17606
H         -7.46983       -6.36170        0.34934
H         -5.34405       -5.86151       -0.83690
H         -3.28123        2.58851        4.25255
H         -0.30267        4.91406        3.72817
H         -1.03875        4.03785        5.08376
H         -2.55183        5.89938        3.14906
H         -2.04481        6.33478        4.79445
H         -3.26447        5.07816        4.54299
H          0.00670        3.52606        1.75819
H         -0.25767       -0.41962       -1.97030
H         -2.60209       -1.01143       -3.89353
H          3.18189       -2.38030       -2.65288
H          4.44544       -1.92835       -4.74863
H          0.29355        0.49884       -8.53046
H          4.83598        1.46946      -11.06884
H          7.09433        1.08622      -10.19333
H          7.51194       -0.60710       -8.43879
H          5.67928       -2.01278       -7.58609
