118

C         -9.69153       -7.74077       13.12458
C        -10.35755       -8.90608       12.72754
C         -9.75641       -9.81963       11.85098
C         -8.45773       -9.61179       11.38746
C         -7.77403       -8.48665       11.82682
C         -8.40109       -7.52015       12.66425
C         -7.49069       -6.32639       12.77413
C         -7.47823       -5.37205       13.72877
C         -8.39257       -5.37883       14.81800
N         -9.13314       -5.39531       15.71097
C         -6.48387       -4.35203       13.75032
N         -5.67628       -3.51906       13.74033
C         -6.48546       -6.52278       11.69745
C         -6.40873       -7.98946       11.52249
C         -5.29244       -8.73627       11.35760
C         -3.98608       -8.14931       11.39398
N         -2.92901       -7.68771       11.47244
C         -5.35516      -10.14886       11.18515
N         -5.38993      -11.29000       11.01025
C         -6.09462       -5.57613       10.80974
C         -5.49529       -5.87033        9.53847
S         -6.00317       -7.25784        8.58353
C         -4.92723       -6.95949        7.28731
C         -4.27144       -5.79337        7.54693
C         -4.55521       -5.20493        8.79246
N         -3.75588       -4.08902        8.92880
C         -2.99172       -3.96864        7.74644
S         -1.90668       -2.77468        7.40692
N         -3.32276       -5.03897        6.89713
C         -4.86222       -7.88340        6.21936
C         -4.64592       -7.45386        4.97192
C         -4.49585       -8.31631        3.81997
C         -3.47750       -9.21655        3.80674
C         -3.14584       -9.89416        2.56884
C         -2.10845      -10.72030        2.24929
C         -1.10415      -11.38593        3.19536
C         -1.57277      -12.80727        3.64529
N         -2.82156      -12.82679        4.41881
C          0.37219      -11.46452        2.69990
N          1.28318      -12.10636        3.65710
C         -2.15084      -10.74491        0.77833
C         -1.19234      -10.95129       -0.13877
C         -1.40188      -10.70491       -1.62385
C         -2.82030      -10.30953       -2.00201
C         -3.77290      -10.05824       -1.08943
C         -3.39790      -10.14907        0.29621
C         -3.96754       -9.59942        1.37254
C         -5.12623       -8.74963        1.46435
C         -5.35324       -8.12537        2.63294
C         -0.90350      -11.89482       -2.39699
C         -1.63525      -12.96646       -2.74239
C         -1.03431      -14.02095       -3.46632
S         -1.05060      -14.02324       -5.20325
C         -0.11714      -15.49015       -5.32928
C          0.12261      -15.95064       -4.06385
C         -0.39001      -15.14566       -3.03993
N         -0.08482      -15.72164       -1.82730
C          0.63202      -16.90713       -2.09712
S          1.22172      -17.96090       -0.97378
N          0.75467      -17.03672       -3.49628
C          0.25032      -15.97469       -6.61005
C          1.37376      -16.68791       -6.77556
C          1.81038      -17.17950       -8.06000
C          1.15929      -18.04520       -8.85944
C          1.48770      -18.23980      -10.29613
C          2.72137      -18.38712      -10.83531
C          3.90477      -18.35515      -10.03771
N          4.85966      -18.31269       -9.38315
C          2.93134      -18.64954      -12.21632
N          3.10985      -18.85645      -13.34398
C          0.15835      -18.37868      -10.97821
C         -0.84889      -18.57041       -9.98740
C         -2.19037      -18.63385      -10.34627
C         -2.53067      -18.55455      -11.69759
C         -1.54335      -18.38541      -12.67370
C         -0.19575      -18.27982      -12.31877
C         -0.19085      -18.62496       -8.64564
C         -0.64263      -19.28671       -7.55437
C         -1.93520      -19.89342       -7.49978
N         -2.98127      -20.37747       -7.45238
C          0.18506      -19.53690       -6.41940
N          0.85313      -19.75732       -5.49584
H        -10.22026       -7.03480       13.75525
H        -11.36999       -9.09482       13.08120
H        -10.31231      -10.69535       11.52062
H         -8.03101      -10.31617       10.67928
H         -6.33304       -4.52712       10.98522
H         -3.67377       -3.49019        9.73671
H         -2.92728       -5.23079        5.98949
H         -4.98708       -8.94439        6.42873
H         -4.55466       -6.39368        4.74849
H         -2.80565       -9.32315        4.65022
H         -1.06858      -10.77369        4.10585
H         -0.80680      -13.26423        4.28395
H         -1.69111      -13.46414        2.77757
H         -2.75454      -12.18260        5.20363
H         -2.93875      -13.75538        4.82835
H          0.74967      -10.46004        2.47234
H          0.43797      -12.06231        1.78989
H          1.24960      -11.64656        4.56435
H          2.24716      -12.06131        3.32877
H         -0.17823      -11.18817        0.13440
H         -0.76584       -9.85090       -1.89606
H         -3.04275      -10.19320       -3.05905
H         -4.77257       -9.75159       -1.37374
H         -5.75719       -8.58723        0.59929
H         -6.19015       -7.43679        2.71881
H          0.15313      -11.85053       -2.65893
H         -2.68233      -13.05112       -2.46654
H         -0.34897      -15.37316       -0.91838
H          1.18960      -17.81210       -3.98055
H         -0.37503      -15.72058       -7.46345
H          2.04865      -16.88049       -5.94262
H          2.73642      -16.70322       -8.38284
H         -2.99080      -18.72537       -9.61955
H         -3.57646      -18.61339      -11.99427
H         -1.83133      -18.31642      -13.72137
H          0.52559      -18.10225      -13.10850
