95

C          3.56226       -0.70375        5.98296
C          4.80860       -1.22178        5.62027
C          4.90470       -2.45388        4.97552
C          3.75912       -3.20629        4.71534
C          2.51780       -2.72785        5.12915
C          2.40745       -1.44356        5.73464
C          0.95452       -1.14136        6.00576
C          0.45578       -0.08474        6.69537
C          1.26349        0.96389        7.22112
N          1.90302        1.83313        7.64880
C         -0.93284        0.06698        6.97767
N         -2.06459        0.20589        7.19242
C          0.18894       -2.28508        5.40796
C          1.16968       -3.37989        5.14548
C          0.95869       -4.71931        5.19629
C         -0.22306       -5.26911        5.77253
N         -1.15196       -5.72659        6.30125
C          1.93185       -5.68440        4.81140
N          2.70765       -6.47538        4.46390
C         -1.05374       -2.19912        4.88025
C         -1.69246       -3.21573        4.10918
C         -2.20120       -4.14375        3.53900
C         -2.68291       -5.37578        3.00305
S         -1.70439       -6.40640        2.05411
C         -2.88571       -7.64239        2.05407
C         -4.03667       -7.24837        2.70077
C         -3.91854       -5.93327        3.25307
C         -2.63679       -8.93951        1.51070
C         -2.30659      -10.04123        1.16840
C         -1.76146      -11.33360        0.92439
C         -2.20536      -12.17212       -0.02418
C         -1.62426      -13.50068       -0.28217
C         -1.62416      -14.11496       -1.55555
F         -2.21061      -13.46431       -2.57620
C         -1.01772      -15.36867       -1.83955
F         -1.06442      -15.81845       -3.10503
C         -0.36730      -16.14075       -0.86914
C         -0.38532      -15.59631        0.43105
C         -1.01003      -14.28971        0.72554
N         -0.86741      -14.06433        2.04568
N         -0.20341      -15.14434        2.46893
N          0.11720      -16.08754        1.57880
C          0.17002      -15.29090        3.85463
C          0.31866      -17.36888       -1.10600
C          0.97151      -18.37427       -1.19935
C          1.80996      -19.53114       -1.21264
S          3.51492      -19.44253       -1.31158
C          3.68567      -21.14201       -1.20498
C          2.46255      -21.76879       -1.10737
C          1.37655      -20.83602       -1.11277
C          4.95819      -21.79003       -1.23628
C          6.16471      -22.27552       -1.32926
C          7.57124      -22.84150       -1.43765
C          8.49568      -22.20366       -2.15965
C          9.86220      -22.65628       -2.22678
C         10.75655      -22.78336       -1.22326
C         12.03531      -23.57906       -1.32274
C         12.65399      -24.07848       -2.42805
C         12.21427      -23.86027       -3.76539
N         11.87123      -23.71918       -4.86540
C         13.79952      -24.92593       -2.37837
N         14.72572      -25.62585       -2.36987
C         12.47826      -23.80825        0.10180
C         11.52749      -23.25838        1.00225
C         11.71266      -23.40076        2.37891
C         12.86336      -24.01689        2.86857
C         13.82511      -24.50062        1.99063
C         13.63325      -24.40420        0.61154
C         10.52049      -22.45752        0.22711
C          9.74701      -21.48297        0.77802
C          9.44040      -21.40321        2.16857
N          9.14550      -21.35035        3.29075
C          9.21926      -20.38619        0.03628
N          8.81640      -19.44000       -0.50264
H          3.56014        0.26805        6.46028
H          5.71255       -0.65487        5.83672
H          5.88121       -2.83724        4.68520
H          3.88839       -4.15285        4.20314
H         -1.65012       -1.29796        4.96999
H         -4.90559       -7.88486        2.82354
H         -4.68600       -5.45326        3.84934
H         -0.92722      -11.60692        1.56525
H         -3.01236      -11.86889       -0.68854
H         -0.21366      -14.44241        4.42665
H          1.26058      -15.32063        3.91308
H         -0.26271      -16.22120        4.23025
H          2.34221      -22.84277       -1.03305
H          0.33264      -21.11550       -1.03542
H          7.76994      -23.74531       -0.87047
H          8.23386      -21.32283       -2.74602
H         10.07135      -22.96306       -3.24424
H         11.01525      -23.03321        3.12016
H         13.02021      -24.09392        3.94252
H         14.73466      -24.95384        2.37954
H         14.43324      -24.78894       -0.00689
