96

C         -9.19132       -1.35969       -0.35229
C         -9.87799       -2.22114       -1.21212
C         -9.34723       -3.46898       -1.54383
C         -8.10725       -3.86861       -1.04282
C         -7.38860       -2.99464       -0.23228
C         -7.94515       -1.73622        0.14074
C         -6.99920       -1.03641        1.07751
C         -7.02623        0.26223        1.46412
C         -8.04523        1.17255        1.06821
N         -8.87338        1.92496        0.75916
C         -6.00075        0.84097        2.26823
N         -5.17308        1.30191        2.93822
C         -5.94782       -2.04433        1.40196
C         -6.00878       -3.09047        0.34328
C         -4.98293       -3.79487       -0.19567
C         -3.62264       -3.45916        0.07162
N         -2.51502       -3.15246        0.23143
C         -5.16074       -4.81452       -1.17360
N         -5.30404       -5.66642       -1.94987
C         -5.34255       -2.15691        2.60513
C         -4.49984       -3.23547        2.99255
C         -3.71984       -4.12061        3.20772
C         -2.73127       -5.14803        3.21862
S         -3.04795       -6.73124        2.67319
C         -1.40221       -7.16770        2.79731
C         -0.63308       -6.14408        3.30556
C         -1.40664       -4.96990        3.55625
C         -0.91479       -8.44233        2.39535
C         -0.54064       -9.52572        2.04095
C         -0.13617      -10.82667        1.64532
C         -0.39858      -11.30354        0.42078
C         -0.03368      -12.62900        0.07870
N          0.22564      -12.90453       -1.24740
C          0.54195      -14.23277       -1.34733
C          0.90583      -15.23523       -2.27769
C          1.03640      -16.39786       -1.52906
N          0.79733      -16.10796       -0.20333
C          0.48439      -14.78094       -0.11099
C          0.12094      -13.78761        0.82473
C          1.35325      -17.74025       -1.86365
C          1.04219      -18.22376       -3.07442
C          1.33445      -19.54876       -3.48228
C          1.55268      -20.62704       -3.97273
C          1.80639      -21.82191       -4.69901
S          2.74194      -21.82889       -6.12706
C          2.50659      -23.50337       -6.34890
C          1.73071      -24.05273       -5.35166
C          1.32404      -23.07441       -4.39152
C          3.05723      -24.20264       -7.45902
C          3.52689      -24.73054       -8.42793
C          4.07219      -25.30552       -9.60303
C          3.30368      -25.52558      -10.67742
C          3.80700      -26.10097      -11.90595
C          4.74774      -25.60882      -12.74034
C          5.44016      -26.40766      -13.80798
C          4.96810      -27.48460      -14.48830
C          3.64922      -27.99796      -14.32175
N          2.58377      -28.43733      -14.18473
C          5.73558      -28.21346      -15.44100
N          6.34582      -28.83174      -16.21103
C          6.78695      -25.75064      -13.98898
C          6.86866      -24.59640      -13.16060
C          8.05093      -23.85979      -13.09911
C          9.12258      -24.20745      -13.92171
C          9.02453      -25.29826      -14.78176
C          7.86786      -26.08159      -14.80547
C          5.52674      -24.35110      -12.53998
C          5.06986      -23.14212      -12.12273
C          5.91631      -22.02236      -11.88396
N          6.60281      -21.11567      -11.65035
C          3.68028      -22.85423      -11.97677
N          2.55658      -22.57388      -11.89747
H         -9.67077       -0.42036       -0.10414
H        -10.84199       -1.92102       -1.61959
H         -9.90371       -4.13390       -2.20213
H         -7.74822       -4.85606       -1.31129
H         -5.49997       -1.42670        3.39216
H          0.43727       -6.21508        3.45963
H         -0.99454       -4.03245        3.91099
H          0.38805      -11.42418        2.38462
H         -0.90862      -10.68444       -0.31463
H          0.20827      -12.27029       -2.03618
H          1.05437      -15.13475       -3.34385
H          0.81478      -16.72789        0.59648
H         -0.02341      -13.90139        1.88993
H          1.85340      -18.36673       -1.12936
H          0.54802      -17.60448       -3.81705
H          1.45725      -25.10024       -5.30859
H          0.70228      -23.28316       -3.52927
H          5.13054      -25.54664       -9.60633
H          2.23526      -25.30229      -10.64504
H          3.35584      -27.07661      -12.06317
H          8.18625      -23.00659      -12.44481
H         10.03486      -23.61410      -13.90258
H          9.85816      -25.54662      -15.43637
H          7.86932      -26.92169      -15.48779
