84

C         -2.58953       -0.57442       -4.92255
C         -2.03073       -1.53499       -5.77465
C         -2.38308       -2.88709       -5.67099
C         -3.34142       -3.30088       -4.74818
C         -3.95027       -2.33949       -3.95448
C         -3.54317       -0.97497       -3.99736
C         -4.23091       -0.23914       -2.87871
C         -4.40038        1.09330       -2.72700
C         -3.90188        2.03389       -3.67041
N         -3.50739        2.80434       -4.44368
C         -5.16851        1.63987       -1.65675
N         -5.78940        2.05739       -0.77180
C         -4.83003       -1.30723       -2.03485
C         -5.02188       -2.46128       -2.93509
C         -6.09759       -3.27975       -2.99550
C         -7.23131       -3.06667       -2.16073
N         -8.15130       -2.84741       -1.48739
C         -6.19655       -4.34821       -3.92787
N         -6.27512       -5.23292       -4.67575
C         -4.82933       -1.34184       -0.68812
C         -5.05339       -2.50445        0.14215
C         -5.90845       -2.61370        1.17095
C         -5.88361       -3.90640        1.82658
C         -4.97533       -4.75311        1.32293
S         -4.08872       -3.97426        0.04252
O         -4.35328       -4.69289       -1.20143
O         -2.72596       -3.69040        0.44886
C         -4.83244       -6.10296        1.69974
N         -4.39992       -6.99550        0.73824
C         -4.28922       -8.22032        1.32414
C         -3.90808       -9.55210        1.05177
C         -4.05677      -10.21065        2.25964
N         -4.53590       -9.33584        3.20898
C         -4.66891       -8.11346        2.61924
C         -5.05192       -6.78029        2.88824
C         -3.80528      -11.52816        2.69122
C         -3.88003      -12.56292        1.84246
C         -3.63868      -13.92714        2.23116
C         -3.71943      -15.01643        1.44772
C         -3.42653      -16.25559        2.12954
C         -3.05182      -16.11069        3.41130
S         -3.18916      -14.41715        3.85658
O         -1.88304      -13.88955        4.19388
O         -4.32221      -14.24992        4.74787
C         -2.76481      -17.13142        4.39099
C         -2.04572      -18.26343        4.24063
C         -2.08458      -19.42748        5.17693
C         -2.22516      -19.39938        6.52680
C         -2.33534      -18.18615        7.27012
N         -2.45505      -17.20549        7.87559
C         -2.25728      -20.56959        7.33102
N         -2.29011      -21.51865        8.00045
C         -1.89226      -20.64070        4.29814
C         -1.64116      -20.22110        2.95857
C         -1.49816      -21.15219        1.93443
C         -1.50711      -22.50939        2.24850
C         -1.69137      -22.92843        3.56657
C         -1.90938      -22.00071        4.58988
C         -1.46509      -18.74057        2.96161
C         -0.66017      -18.05860        2.11158
C         -0.32584      -18.52662        0.80957
N         -0.12573      -18.87396       -0.27873
C         -0.03135      -16.83993        2.49924
N          0.55374      -15.89204        2.81578
H         -2.23995        0.44848       -5.00572
H         -1.28982       -1.23357       -6.51314
H         -1.90161       -3.62252       -6.31283
H         -3.57101       -4.35854       -4.65780
H         -4.53157       -0.47026       -0.10588
H         -6.60370       -1.84350        1.47787
H         -6.59440       -4.15768        2.60351
H         -4.18195       -6.82585       -0.23976
H         -3.54218       -9.96434        0.12164
H         -4.75469       -9.52089        4.18015
H         -5.40166       -6.36482        3.82300
H         -3.55124      -11.67028        3.73942
H         -4.15113      -12.39813        0.80197
H         -3.98235      -15.00058        0.39788
H         -3.53472      -17.20159        1.61651
H         -3.28425      -16.91183        5.32349
H         -1.35710      -20.87591        0.89574
H         -1.34944      -23.24633        1.46321
H         -1.66757      -23.99132        3.80025
H         -2.06750      -22.39596        5.58529
