146

C          2.30079       -1.24727        0.45166
C          3.41543       -0.47239        0.16400
C          3.29171        0.91192        0.12504
C          2.05239        1.55124        0.35412
C          0.91988        0.73899        0.63962
C          1.06654       -0.66992        0.69372
N          0.03895       -1.49393        0.97456
C         -1.17261       -0.93626        1.21181
C         -1.34635        0.43919        1.16369
N         -0.31028        1.26173        0.86685
C         -2.64858        1.12928        1.42419
C         -2.29154       -1.88301        1.51704
C          1.98023        3.05021        0.30031
C          2.79511        3.80115       -0.57807
C          2.71180        5.19380       -0.58895
C          1.79986        5.87617        0.24212
C          0.99320        5.17352        1.11006
C          1.10448        3.77806        1.14564
C          1.90744        7.29824        0.01517
C          2.91745        7.53856       -0.93623
C          3.52799        6.20707       -1.40207
C          3.35084        6.02248       -2.93328
C          1.90849        6.01179       -3.43842
C          5.04120        6.13399       -1.04818
C          5.38383        6.19046        0.44154
C          3.23128        8.83149       -1.33819
C          2.52245        9.90181       -0.76824
C          1.50612        9.65187        0.17560
C          1.19557        8.35183        0.57775
C          2.85645       11.28449       -1.14719
C          3.79026       11.91953       -0.39330
C          4.23826       13.23616       -0.79198
C          5.16701       14.05931       -0.24442
C          5.94895       13.92038        1.04983
C          7.47692       13.83975        0.79237
N          8.28024       13.64012        2.00175
C          5.51974       15.03993        2.04736
N          6.17485       14.97967        3.36222
C          5.24306       15.18737       -1.17246
C          6.09605       16.21702       -1.23349
C          6.00861       17.31201       -2.28370
C          4.84974       17.11060       -3.25977
C          4.02225       16.04814       -3.23273
C          4.23247       15.05121       -2.21558
C          3.64942       13.86357       -2.00119
C          2.60909       13.17681       -2.73097
C          2.24396       11.94697       -2.31536
C          5.93887       18.68189       -1.64184
C          6.49213       19.02621       -0.46346
C          6.37970       20.35419        0.13843
C          5.20408       21.09877        0.01545
C          5.15698       22.35144        0.59891
C          6.24918       22.86547        1.33076
C          7.39897       22.11575        1.49711
C          7.45787       20.85359        0.89891
C          5.92392       24.19961        1.77950
C          4.64079       24.54152        1.31501
C          4.02540       23.37480        0.53957
C          2.73518       22.85517        1.23421
C          2.90565       22.34785        2.66691
C          3.70036       23.77108       -0.92724
C          4.89545       24.21883       -1.77034
C          4.08809       25.79065        1.56764
C          4.79434       26.73014        2.33915
C          6.07921       26.34872        2.81245
C          6.65302       25.10111        2.52636
C          4.23318       28.08546        2.63151
C          5.11619       29.18775        2.68342
C          4.66203       30.47093        2.95552
C          3.30653       30.67943        3.16203
C          2.39901       29.63552        3.10166
C          2.84673       28.31625        2.84161
N          1.92344       27.32245        2.79364
C          0.61115       27.62276        2.95876
C          0.20111       28.92377        3.21548
N          1.10057       29.93388        3.28926
C         -1.23155       29.32374        3.38469
C         -0.34490       26.47723        2.83413
H          2.39339       -2.33031        0.49207
H          4.37653       -0.94532       -0.02087
H          4.18874        1.49486       -0.07379
H         -3.45348        0.44493        1.70159
H         -2.96050        1.67322        0.52708
H         -2.52678        1.84724        2.24240
H         -1.94430       -2.92095        1.48377
H         -3.09237       -1.77601        0.77868
H         -2.69046       -1.69585        2.51887
H          3.49175        3.31279       -1.25274
H          0.29033        5.67779        1.76329
H          0.47501        3.25546        1.86317
H          3.82282        5.08349       -3.25077
H          3.88552        6.82501       -3.45880
H          1.38762        5.10028       -3.12991
H          1.89915        6.04122       -4.53305
H          1.33784        6.87438       -3.08301
H          5.57201        6.95467       -1.54846
H          5.46866        5.20499       -1.44871
H          4.89221        7.02450        0.94976
H          6.46408        6.31599        0.57041
H          5.10289        5.26140        0.94786
H          4.00946        9.01584       -2.07266
H          0.95348       10.48641        0.61043
H          0.41560        8.17379        1.30501
H          4.25525       11.43937        0.46013
H          5.66414       12.96836        1.51901
H          7.84591       14.74936        0.31803
H          7.68979       13.01502        0.10376
H          7.92275       14.29948        2.71043
H          9.23721       13.93873        1.81885
H          4.43668       14.97380        2.21370
H          5.71672       16.03227        1.62981
H          6.00075       14.06209        3.77797
H          5.73818       15.65904        3.98619
H          6.90050       16.30516       -0.51935
H          6.92795       17.27947       -2.88329
H          4.71951       17.86093       -4.03572
H          3.22247       15.93214       -3.95363
H          2.14958       13.64561       -3.59155
H          1.46978       11.40165       -2.84749
H          5.42001       19.44392       -2.22024
H          7.07883       18.32230        0.11821
H          4.34664       20.71792       -0.52983
H          8.24362       22.49381        2.06233
H          8.36312       20.26109        1.01766
H          2.30219       22.03715        0.64327
H          1.98244       23.65435        1.24790
H          3.52623       21.44704        2.70197
H          1.92849       22.08674        3.08702
H          3.35234       23.10317        3.31968
H          2.95793       24.57915       -0.93135
H          3.23078       22.92276       -1.44326
H          5.47450       25.00606       -1.27969
H          4.54688       24.61297       -2.73019
H          5.56616       23.38130       -1.98746
H          3.10778       26.01993        1.16142
H          6.66042       27.03255        3.42796
H          7.64484       24.85820        2.89184
H          6.17970       29.05488        2.49331
H          5.35831       31.30409        2.99691
H          2.94211       31.68336        3.36575
H         -1.90587       28.47016        3.48787
H         -1.55391       29.91253        2.52005
H         -1.33950       29.93673        4.28547
H          0.18654       25.55215        2.58570
H         -1.06836       26.66770        2.03495
H         -0.87479       26.31615        3.77760
