109

C         -9.21875       -5.87136        2.53097
C         -7.97067       -6.09182        3.01759
C         -7.46760       -7.38890        3.30535
N         -7.05063       -8.44741        3.53997
C         -7.07351       -5.03371        3.32932
N         -6.35335       -4.15650        3.58325
C        -10.26223       -6.92021        2.28194
C        -11.48877       -6.27993        2.11360
C        -12.69180       -6.92311        1.85139
C        -12.66905       -8.32368        1.72285
C        -11.44526       -8.99252        1.87620
C        -10.22847       -8.30885        2.15906
S        -11.65276      -10.69712        1.65840
C        -13.30505      -10.52604        1.35118
C        -13.73884       -9.23093        1.42192
Br       -14.43612      -11.96236        0.94314
C        -11.34396       -4.82805        2.17729
O        -12.27647       -4.05445        2.11656
C         -9.86882       -4.55204        2.28930
C         -9.35093       -3.32631        2.07555
C        -10.08965       -2.11662        1.76248
C        -10.88113       -2.03691        0.66544
C        -11.57037       -0.77193        0.63393
C        -12.56802       -0.42357       -0.30627
N        -13.38199       -0.12754       -1.07864
C        -11.17572       -0.02392        1.67446
C        -10.18782       -0.78665        2.44562
C         -9.55881       -0.35909        3.56694
C         -9.63370        0.96297        4.26567
C         -8.95543        0.79862        5.42523
C         -8.35974       -0.51074        5.49164
C         -8.67521       -1.19604        4.38640
C         -7.54388       -0.94910        6.56002
N         -6.88603       -1.29031        7.45280
C        -10.21556        2.24329        3.90110
C        -10.06165        3.39578        4.57596
C        -10.64804        4.64132        4.14311
C        -10.49613        5.78677        4.82355
C        -11.03003        7.01167        4.34172
O        -11.37316        8.04500        5.19125
C        -11.84518        9.12128        4.46582
C        -11.77956        8.76312        3.13018
C        -11.27053        7.46239        3.05519
O        -11.01443        6.77879        1.92488
O        -12.09957        9.52920        2.07033
C        -12.27985       10.33616        5.05821
C        -11.83891       10.70106        6.27136
C        -12.18814       11.95993        6.88216
C        -11.22176       12.86120        7.16902
C        -11.82054       14.10805        7.58646
C        -11.08291       15.25576        7.96031
N        -10.47190       16.19110        8.27287
C        -13.15959       14.00303        7.54307
C        -13.49145       12.62195        7.18005
C        -14.72149       12.05758        7.19741
C        -16.06264       12.67462        7.41556
C        -16.94674       11.64940        7.37082
C        -16.27470       10.40019        7.10741
C        -14.95964       10.62135        7.00791
C        -16.92711        9.15032        6.99895
N        -17.48157        8.13579        6.90334
C        -16.49255       14.03656        7.68732
C        -17.68925       14.53421        7.33024
C        -18.09482       15.91117        7.51150
C        -19.21908       16.32321        8.11506
C        -20.25505       15.62731        8.88949
C        -20.03729       14.76639        9.91917
C        -21.08766       14.18571       10.68522
N        -21.94755       13.70212       11.29346
C        -18.72253       14.54410       10.42170
N        -17.66547       14.42316       10.88748
C        -21.52154       16.38131        8.68175
C        -21.18638       17.63569        8.15690
C        -19.75244       17.68892        7.80702
O        -19.16287       18.62669        7.31405
C        -22.09662       18.67345        8.00779
C        -23.42584       18.44330        8.43253
C        -23.77766       17.16462        8.89471
C        -22.84560       16.10296        8.99306
S        -25.44531       17.10027        9.34262
C        -25.66525       18.73713        8.99913
C        -24.54412       19.34395        8.49955
Br       -27.28599       19.63251        9.28050
H        -13.60818       -6.35366        1.72022
H         -9.31958       -8.89398        2.24262
H        -14.76449       -8.92280        1.25458
H         -8.27890       -3.15484        2.07105
H        -11.06915       -2.82454       -0.05062
H        -11.60729        0.92955        1.90601
H         -8.80174        1.53181        6.20334
H         -8.33365       -2.19199        4.17730
H        -10.79329        2.29294        2.99058
H         -9.45662        3.45016        5.47552
H        -11.22426        4.62302        3.21995
H         -9.95884        5.81798        5.76631
H        -11.24205        7.34942        1.16751
H        -12.37765       10.41474        2.35856
H        -12.96293       10.97148        4.50341
H        -11.12139       10.08373        6.81117
H        -10.15804       12.72544        7.02628
H        -13.83577       14.79805        7.79386
H        -18.01525       11.70547        7.51872
H        -14.22401        9.84888        6.86147
H        -15.80975       14.67481        8.23588
H        -18.40490       13.91969        6.78587
H        -17.50249       16.63407        6.94615
H        -21.78044       19.63902        7.62245
H        -23.18083       15.13740        9.35629
H        -24.49872       20.38890        8.21705
