156

C         -5.48736       -0.61956       -1.25560
C         -5.30646        0.45573       -0.44589
C         -4.39542        0.45312        0.65160
N         -3.65984        0.44976        1.55079
C         -5.96603        1.69181       -0.66105
N         -6.51724        2.70213       -0.83099
C         -4.71756       -1.90093       -1.20284
C         -4.87365       -2.55458       -2.42587
C         -4.31582       -3.78929       -2.73622
C         -3.53447       -4.42016       -1.74618
C         -3.35707       -3.77059       -0.51482
C         -3.95122       -2.51505       -0.21799
S         -2.34566       -4.70108        0.53416
C         -2.16807       -5.92442       -0.61496
C         -2.85611       -5.68613       -1.77384
Br        -1.12756       -7.45589       -0.33131
C         -5.73395       -1.78100       -3.32344
O         -5.83935       -1.98562       -4.51411
C         -6.32404       -0.68054       -2.48068
C         -7.45150       -0.01989       -2.81075
C         -8.16280       -0.25368       -4.03452
C         -8.04550        0.34155       -5.30730
C         -8.96268       -0.23963       -6.23963
C         -9.64893       -1.28511       -5.64850
S         -9.41327       -1.46052       -4.01270
C        -10.46222       -2.04646       -6.60849
C         -9.63093       -1.75435       -7.89637
C         -9.25579       -0.21538       -7.77190
C        -10.49665        0.64895       -8.14406
C        -10.32947        2.16040       -8.07984
C         -8.00390        0.11288       -8.62148
C         -8.11353       -0.16661      -10.11776
C        -10.43807       -2.41121       -8.99635
C        -10.61127       -3.86182       -8.51141
S        -10.58438       -3.81650       -6.67352
C         -7.09802        1.38152       -5.60806
C         -5.84074        1.41328       -5.14475
C         -4.92906        2.53419       -5.19001
C         -3.68377        2.33299       -5.69376
C         -2.62839        3.24598       -5.29969
C         -1.29911        3.25714       -5.57733
C         -0.59215        2.64484       -6.77868
C         -0.56881        3.75952       -7.86977
N          0.05796        3.41538       -9.15124
C          0.79040        2.02255       -6.47258
N          1.47539        1.36730       -7.59394
C         -0.73862        4.09030       -4.50576
C          0.47196        4.10716       -3.92487
C          0.72599        4.83731       -2.61254
C         -0.38432        5.80881       -2.22257
C         -1.59241        5.80296       -2.81530
C         -1.81106        4.81299       -3.82867
C         -2.94951        4.30331       -4.31711
C         -4.31739        4.64370       -4.04782
C         -5.26443        3.79269       -4.48864
C          2.05084        5.53873       -2.65625
C          3.21322        4.99228       -2.24717
C          4.44418        5.72227       -2.28120
C          5.76889        5.27568       -2.45729
C          6.67171        6.38100       -2.59894
C          5.98659        7.57509       -2.50540
S          4.40260        7.45354       -2.05627
C          6.80974        8.75022       -2.80423
C          7.86858        8.06070       -3.71647
C          8.16549        6.68234       -2.98276
C          8.99620        6.81967       -1.66631
C         10.40075        7.40865       -1.74360
C          8.73675        5.61149       -3.94129
C         10.02357        5.96222       -4.67788
C          8.79619        9.20265       -4.06969
C          7.86305       10.25819       -4.69406
S          6.25410       10.09450       -3.83166
C          6.09995        3.88808       -2.65074
C          6.41730        3.02434       -1.66785
C          6.78840        1.63555       -1.91676
C          7.52566        0.83630       -1.12989
C          8.16564        1.02270        0.17553
C          7.56842        1.50337        1.29402
C          8.23526        1.63540        2.53599
N          8.78530        1.76393        3.54927
C          6.15753        1.73837        1.33391
N          5.01203        1.85829        1.38206
C          9.38165        0.15891        0.20090
C          9.25480       -0.78054       -0.82771
C          8.10101       -0.44086       -1.70076
O          7.74958       -1.03842       -2.68487
C         10.10393       -1.87171       -0.97374
C         11.14552       -2.03249       -0.02397
C         11.31615       -1.04625        0.96043
C         10.46067        0.07648        1.07305
S         12.65246       -1.41478        1.99274
C         12.94665       -2.87202        1.19599
C         12.10806       -3.09085        0.13505
Br        14.28923       -4.06903        1.72000
H         -4.49317       -4.24942       -3.70491
H         -3.79315       -2.08844        0.76576
H         -2.87326       -6.36487       -2.61837
H         -7.90592        0.70711       -2.14659
H        -11.47416       -1.62765       -6.66121
H         -8.66162       -2.28850       -7.84386
H        -10.81617        0.39832       -9.16331
H        -11.34764        0.40103       -7.49821
H        -10.11870        2.49766       -7.06178
H        -11.26303        2.64010       -8.39991
H         -9.54204        2.51657       -8.74814
H         -7.73711        1.16810       -8.49958
H         -7.14484       -0.45439       -8.24095
H         -8.90542        0.42297      -10.58802
H         -8.28766       -1.22296      -10.32745
H         -7.16999        0.08770      -10.61197
H         -9.93910       -2.40594       -9.96692
H        -11.41358       -1.93086       -9.12735
H         -9.77600       -4.48328       -8.85069
H        -11.54457       -4.29446       -8.88028
H         -7.43239        2.19700       -6.24007
H         -5.44412        0.59436       -4.55775
H         -3.40428        1.39368       -6.16102
H         -1.22042        1.83131       -7.16891
H         -0.08573        4.66555       -7.48407
H         -1.60734        4.03643       -8.09564
H          1.04752        3.65786       -9.09952
H         -0.31210        4.03984       -9.87052
H          0.67448        1.27362       -5.68103
H          1.48246        2.78578       -6.11527
H          0.77131        1.02384       -8.25167
H          1.95377        2.08738       -8.13552
H          1.28475        3.48048       -4.26247
H          0.76327        4.07381       -1.82216
H         -0.19340        6.50204       -1.40881
H         -2.38746        6.47602       -2.51791
H         -4.57134        5.56236       -3.53096
H         -6.31262        4.00013       -4.29695
H          2.01197        6.55336       -3.04909
H          3.24111        3.95750       -1.91569
H          7.25268        9.15401       -1.88613
H          7.39457        7.75312       -4.67075
H          8.43702        7.42614       -0.94251
H          9.07566        5.83121       -1.19363
H         10.52533        8.15353       -2.52643
H         11.14852        6.62763       -1.90632
H         10.65371        7.89712       -0.79596
H          8.90256        4.68303       -3.38045
H          7.98805        5.36483       -4.70623
H         10.79125        6.38400       -4.03205
H          9.83468        6.67023       -5.48926
H         10.45178        5.05833       -5.12445
H          9.58289        8.91450       -4.77061
H          9.26394        9.64081       -3.18231
H          7.70192       10.05771       -5.75780
H          8.26208       11.26891       -4.57839
H          6.10146        3.54678       -3.68407
H          6.42382        3.40144       -0.65178
H          6.48929        1.24841       -2.89478
H          9.94702       -2.59867       -1.76643
H         10.64406        0.79995        1.86018
H         12.15295       -3.97138       -0.49452
