88

C         -9.40648        9.59047       -2.06566
C         -9.56872        9.75044       -3.40313
C        -10.29492       10.83110       -3.97981
N        -10.88820       11.70354       -4.46300
C         -8.98363        8.87108       -4.36520
N         -8.50054        8.15525       -5.13173
C         -9.87172       10.54146       -0.99951
C         -9.29467       10.16175        0.21338
C         -9.49716       10.81813        1.42545
C        -10.34205       11.94644        1.42674
C        -10.93013       12.34546        0.21809
C        -10.71085       11.65403       -1.00573
S        -11.92162       13.74367        0.44548
C        -11.58047       13.79877        2.09673
C        -10.73828       12.80173        2.51229
Br       -12.28523       15.09648        3.25009
C         -8.45723        8.97246        0.04948
O         -7.76109        8.49023        0.91848
C         -8.63746        8.51721       -1.37310
C         -8.21537        7.30903       -1.79318
C         -7.52974        6.31424       -1.01872
C         -6.19947        5.72744       -1.32852
N         -5.72895        4.85767       -0.47908
C         -6.71192        4.79280        0.45729
C         -7.81927        5.63405        0.09218
C         -8.91006        5.47842        1.10601
S        -10.46504        6.05732        0.95347
C         -8.25625        4.60009        2.15730
C         -6.95066        4.21331        1.62706
N         -6.29637        3.38370        2.47593
C         -7.11805        3.30154        3.47946
C         -8.39409        4.06656        3.38023
C         -9.40850        4.15160        4.37675
C         -9.35966        4.00905        5.76538
N         -8.12572        3.78911        6.47443
O         -7.26647        4.67063        6.37244
O         -8.02892        2.73170        7.10495
C        -10.64320        4.15140        6.43623
C        -10.86164        4.01167        7.91618
C        -11.63818        4.51113        5.53501
S        -11.04134        4.41907        3.93758
C        -12.94318        5.00380        5.76947
C        -13.31394        6.03007        6.78007
N        -14.49123        6.57069        6.66291
C        -14.98638        5.95254        5.56124
C        -14.07109        4.94710        5.05483
C        -14.69264        4.33033        3.83013
S        -14.29034        2.93392        3.02653
C        -15.86103        5.23702        3.58080
C        -15.98364        6.13647        4.70618
N        -16.99333        7.02000        4.51787
C        -17.43577        6.68449        3.34291
C        -16.79606        5.51312        2.67201
C        -17.07373        5.01260        1.35275
C        -18.23993        5.08809        0.68995
C        -19.55007        5.61574        1.07419
C        -20.25969        5.26004        2.17199
C        -21.59765        5.68509        2.39291
N        -22.68623        6.03738        2.57973
C        -19.73544        4.32610        3.11978
N        -19.27595        3.56132        3.86130
C        -20.10251        6.25606       -0.14268
C        -19.49037        5.65010       -1.24471
C        -18.31643        4.85977       -0.79628
O        -17.53258        4.26006       -1.49891
C        -19.86477        5.90317       -2.55643
C        -20.80942        6.93540       -2.77625
C        -21.28988        7.66209       -1.67196
C        -20.98174        7.31169       -0.33351
S        -22.24728        9.00619       -2.18843
C        -22.13254        8.54861       -3.80892
C        -21.38512        7.41781       -4.00292
Br       -22.93851        9.50433       -5.20442
H         -9.02443       10.45938        2.33613
H        -11.21238       12.02027       -1.89228
H        -10.41484       12.67301        3.53618
H         -8.37531        6.97344       -2.81239
H         -5.67352        6.03787       -2.24489
H         -6.91283        2.68128        4.36300
H        -10.05774        3.46425        8.41227
H        -11.78911        3.46123        8.10965
H        -10.93326        4.99581        8.38786
H        -12.59698        6.31709        7.56157
H        -18.23576        7.23965        2.83535
H        -16.21043        4.60002        0.82530
H        -19.40680        5.36794       -3.38358
H        -21.38780        7.89282        0.48879
H        -21.21576        6.96697       -4.97376
