82

C         -5.85984       -4.02513        3.87543
N         -4.65046       -3.51480        3.59173
C         -4.01797       -4.10998        2.55553
C         -4.55915       -5.16400        1.84874
N         -5.77279       -5.63743        2.19185
N         -6.44198       -5.05104        3.22275
C         -3.85821       -5.86840        0.80947
C         -3.09935       -7.12838        0.98483
N         -2.56176       -7.64052       -0.08562
C         -2.94425       -6.77300       -1.05843
C         -3.71585       -5.68769       -0.50446
C         -4.10605       -4.75466       -1.60962
S         -4.89237       -3.30035       -1.45816
C         -3.54131       -5.44636       -2.82455
C         -2.84612       -6.63927       -2.37490
N         -2.30214       -7.31461       -3.41728
C         -2.65500       -6.58735       -4.43720
C         -3.44786       -5.35868       -4.15350
C         -3.93569       -4.46232       -5.17423
C         -5.20356       -3.99434       -5.08267
C         -5.78538       -3.15584       -6.11198
C         -7.03342       -2.63258       -6.26960
C         -8.33057       -2.78939       -5.47490
C         -9.54188       -3.25931       -6.33997
N         -9.41750       -4.59878       -6.91624
C         -8.29314       -3.62935       -4.15856
N         -8.00440       -5.05803       -4.31286
C         -6.90592       -1.75441       -7.45428
C         -7.75154       -0.87673       -8.02349
C         -7.37754       -0.06127       -9.26103
C         -5.97531       -0.33179       -9.78743
C         -5.12750       -1.20066       -9.21075
C         -5.56738       -1.89313       -8.02879
C         -4.91007       -2.74414       -7.23151
C         -3.57945       -3.29074       -7.34317
C         -3.13888       -4.11819       -6.37539
C         -8.38883       -0.21826      -10.37640
C         -8.79785       -1.37873      -10.91362
C         -9.75005       -1.48628      -11.97739
C        -10.09401       -0.46242      -13.00257
N        -10.98512       -0.79362      -13.89328
C        -11.30333       -2.06384      -13.53703
C        -10.53905       -2.48011      -12.38497
C        -10.91830       -3.88751      -12.03344
S        -10.29265       -4.84396      -10.82928
C        -11.96601       -4.19458      -13.05942
C        -12.10890       -3.04496      -13.92799
N        -13.02916       -3.27952      -14.90241
C        -13.41670       -4.49777      -14.63285
C        -12.80038       -5.15529      -13.46252
C        -13.11197       -6.47857      -12.98863
N        -13.55008       -7.37537      -13.89330
C        -13.82034       -8.60148      -13.39832
C        -13.68567       -8.91244      -12.06740
N        -13.27296       -7.97955      -11.19722
N        -12.97927       -6.73820      -11.67054
H         -6.41385       -3.58687        4.69633
H         -3.03325       -3.71370        2.32941
H         -3.00791       -7.56798        1.99004
H         -2.40607       -6.84158       -5.47854
H         -5.80394       -4.24387       -4.22569
H         -8.58399       -1.77234       -5.13838
H         -9.73681       -2.55404       -7.15103
H        -10.44498       -3.24572       -5.71698
H         -8.54565       -4.64652       -7.44874
H        -10.15805       -4.73957       -7.60677
H         -9.26920       -3.54874       -3.66457
H         -7.57353       -3.18657       -3.46307
H         -8.66414       -5.44932       -4.99593
H         -8.14299       -5.54865       -3.43334
H         -8.72976       -0.68270       -7.60058
H         -7.39902        0.99309       -8.95315
H         -5.65194        0.22219      -10.66506
H         -4.12963       -1.36215       -9.59985
H         -2.97305       -3.06472       -8.21173
H         -2.15025       -4.55800       -6.46928
H         -8.79267        0.72374      -10.74533
H         -8.39232       -2.31331      -10.52323
H         -9.58884        0.51462      -12.98604
H        -14.18117       -5.03526      -15.22295
H        -14.15253       -9.34129      -14.11846
H        -13.89784       -9.89292      -11.66488
