99

C          2.04500       -8.35921       -3.13515
C          1.11080       -8.58499       -4.08738
C          1.15115       -9.73225       -4.92780
N          1.20652      -10.67076       -5.60827
C          0.12279       -7.60779       -4.41596
N         -0.64923       -6.79686       -4.71852
C          3.29452       -9.12713       -2.91426
C          4.26214       -8.23662       -2.41042
C          5.55275       -8.62303       -2.09403
C          5.87400       -9.97392       -2.24294
C          4.90310      -10.89574       -2.69346
C          3.60831      -10.47134       -3.03852
Cl         5.23337      -12.58978       -2.80624
Cl         7.47349      -10.46334       -1.80994
C          3.64703       -6.92141       -2.12691
O          4.20644       -5.92509       -1.72551
C          2.17999       -7.14461       -2.32859
C          1.32070       -6.51280       -1.51354
C         -0.02311       -6.95894       -1.17542
C         -1.08099       -6.18161       -1.46816
C         -2.41934       -6.55978       -1.10159
C         -2.71207       -7.74474       -0.28525
C         -1.79737       -8.63181        0.10095
S         -0.11486       -8.50512       -0.32638
C         -4.10297       -7.73807       -0.05306
C         -4.66988       -6.66538       -0.69745
C         -6.05349       -6.55688       -0.49695
C         -6.48966       -7.59341        0.31660
S         -5.20330       -8.65676        0.80307
C         -3.61001       -5.94629       -1.35796
C         -3.78316       -4.73756       -2.11813
C         -4.50931       -4.65945       -3.24571
C         -4.70188       -3.44248       -4.06800
C         -5.87138       -3.22434       -4.81752
C         -6.09677       -2.01368       -5.57713
N         -7.29389       -1.86698       -6.18698
C         -8.21498       -2.86765       -6.14764
C         -7.97321       -4.02491       -5.46096
N         -6.81284       -4.19898       -4.78160
C         -8.91008       -5.11257       -5.40270
N         -9.67545       -5.97893       -5.36709
C         -9.43025       -2.62623       -6.86467
N        -10.42970       -2.45895       -7.43169
C         -5.12300       -0.97592       -5.69169
C         -3.90337       -1.20079       -4.96935
C         -3.69764       -2.44180       -4.14291
N         -2.49902       -2.45886       -3.53084
S         -1.71153       -1.07220       -3.91974
N         -2.82709       -0.39364       -4.91516
C         -5.26401        0.28945       -6.50730
C         -4.67677        1.44566       -6.12412
C         -4.68622        2.64031       -6.92613
C         -5.55201        2.78090       -8.09684
C         -6.26035        1.78226       -8.61909
S         -6.15695        0.14591       -8.02998
C         -5.38583        4.09915       -8.56384
C         -4.44849        4.74670       -7.79237
C         -4.18336        6.05426       -8.23276
C         -4.96562        6.34663       -9.34356
S         -5.98333        5.02312       -9.81935
C         -4.01198        3.81992       -6.76964
C         -3.01649        4.12006       -5.75973
C         -1.88557        3.40474       -5.62587
C         -0.85305        3.66217       -4.63591
C          0.29356        2.97338       -4.47725
C          1.35997        3.11590       -3.44979
C          1.72613        4.25144       -2.80195
C          2.84085        4.31134       -1.91598
N          3.74837        4.35399       -1.19504
C          1.06756        5.49848       -3.00533
N          0.52526        6.51130       -3.16541
C          2.08859        1.80747       -3.40761
C          1.66907        1.03513       -4.49907
C          0.64192        1.74162       -5.27054
O          0.20839        1.35445       -6.33399
C          2.13476       -0.24507       -4.76819
C          3.07301       -0.79121       -3.89602
C          3.51757       -0.04603       -2.78749
C          3.01925        1.24963       -2.53768
Cl         4.68431       -0.67349       -1.67577
Cl         3.62728       -2.39433       -4.21992
H          6.26634       -7.90417       -1.70199
H          2.87138      -11.20539       -3.35280
H          1.68469       -5.69064       -0.89462
H         -0.94878       -5.23580       -1.98728
H         -2.08534       -9.49447        0.69411
H         -6.69931       -5.78490       -0.89455
H         -7.49643       -7.78607        0.66132
H         -3.25615       -3.87982       -1.71167
H         -5.03163       -5.54881       -3.59999
H         -4.14937        1.53881       -5.18246
H         -6.88175        1.94745       -9.49378
H         -3.47519        6.74869       -7.80013
H         -4.99431        7.26418       -9.91571
H         -3.22535        4.97822       -5.12613
H         -1.72790        2.57620       -6.31395
H         -1.09667        4.48287       -3.96562
H          1.76183       -0.79986       -5.62531
H          3.37631        1.76986       -1.65444
