125

C         -0.93309       -1.77352       -4.77848
C         -0.59787       -1.52341       -3.49138
C         -1.05204       -0.36836       -2.80002
N         -1.46497        0.57096       -2.25274
C          0.33979       -2.34796       -2.79379
N          1.15262       -2.96334       -2.24873
C         -1.52371       -0.80904       -5.73572
C         -1.02116       -1.12445       -7.01282
C         -1.29656       -0.36568       -8.13697
C         -2.15092        0.72899       -7.98306
C         -2.72903        1.01494       -6.72694
C         -2.41459        0.24339       -5.59569
Cl        -3.85561        2.30906       -6.50977
Cl        -2.47911        1.68713       -9.38259
C         -0.28277       -2.40844       -6.97106
O          0.27824       -2.95296       -7.89612
C         -0.49573       -2.92054       -5.57731
C         -0.61545       -4.24565       -5.37843
C         -1.30411       -4.91755       -4.25447
C         -0.91771       -6.21345       -3.87765
C         -1.63316       -6.87071       -2.87569
C         -2.71352       -6.24134       -2.22504
C         -3.12743       -4.98285       -2.60928
C         -2.44454       -4.34662       -3.64701
C         -3.29427       -7.14218       -1.25917
C         -2.64098       -8.38108       -1.32190
C         -1.47153       -8.30018       -2.32570
C         -1.61553       -9.37528       -3.44099
C         -2.88897       -9.28323       -4.28485
C         -0.11142       -8.45075       -1.57992
C          0.17606       -7.38446       -0.51590
C         -3.08294       -9.46054       -0.55270
C         -4.15578       -9.31234        0.35894
C         -4.74562       -8.02154        0.42362
C         -4.34170       -6.95127       -0.38448
C         -4.65135      -10.44987        1.21380
C         -4.60658      -11.82426        0.84837
C         -5.12040      -12.88940        1.68898
N         -5.09254      -14.15850        1.22335
C         -4.54936      -14.43801        0.01532
C         -4.03861      -13.44309       -0.76560
N         -4.07575      -12.14964       -0.35608
C         -3.46402      -13.68887       -2.05240
N         -3.01201      -13.92402       -3.09693
C         -4.52876      -15.81972       -0.35920
N         -4.49164      -16.93749       -0.67120
C         -5.65836      -12.68223        2.98661
C         -5.68874      -11.31556        3.40118
C         -5.22251      -10.19938        2.50284
N         -5.41766       -8.99508        3.07171
S         -6.03990       -9.21443        4.57369
N         -6.10171      -10.85457        4.59692
C         -6.17441      -13.77058        3.88923
C         -7.22402      -13.54350        4.80817
C         -7.65668      -14.55676        5.66133
C         -7.13046      -15.85640        5.57322
C         -6.12147      -16.12918        4.67461
C         -5.63376      -15.08468        3.87113
C         -7.78921      -16.70748        6.54033
C         -8.68660      -15.93026        7.30274
C         -8.70536      -14.48966        6.77689
C         -8.32153      -13.48253        7.89947
C         -6.93642      -13.65632        8.52765
C        -10.11697      -14.14325        6.21804
C        -10.61903      -15.01275        5.06096
C         -9.42683      -16.48195        8.34289
C         -9.30656      -17.85221        8.58683
C         -8.44351      -18.63787        7.79280
C         -7.67187      -18.06561        6.77303
C        -10.10632      -18.48789        9.64329
C         -9.68489      -18.71367       10.89753
C        -10.29525      -19.55084       11.95295
C        -11.61250      -19.65880       12.25110
C        -12.08458      -20.38236       13.37915
N        -12.45771      -20.97533       14.31111
C        -12.61627      -18.98192       11.49383
N        -13.42497      -18.43685       10.87258
C         -9.15510      -20.10370       12.74212
C         -7.99897      -19.38281       12.40116
C         -8.30436      -18.37508       11.37611
O         -7.57990      -17.45969       11.05343
C         -6.73882      -19.66879       12.89949
C         -6.62242      -20.74432       13.77773
C         -7.76345      -21.48852       14.14235
C         -9.03335      -21.17127       13.62187
Cl        -7.66454      -22.83962       15.21810
Cl        -5.04060      -21.13996       14.34751
H         -0.87516       -0.63151       -9.10198
H         -2.88689        0.47509       -4.64509
H         -0.29486       -4.92403       -6.17155
H         -0.09487       -6.70996       -4.38288
H         -3.99629       -4.51535       -2.15945
H         -2.85654       -3.40681       -4.00056
H         -1.57887      -10.37844       -2.99478
H         -0.76698       -9.31725       -4.13506
H         -3.79370       -9.33233       -3.67219
H         -2.92400      -10.11636       -4.99524
H         -2.91416       -8.35807       -4.86891
H          0.71649       -8.42619       -2.30133
H         -0.06376       -9.43328       -1.09152
H          0.28497       -6.39053       -0.96267
H          1.11058       -7.61380        0.00561
H         -0.60797       -7.33707        0.24493
H         -2.58733      -10.41593       -0.68604
H         -5.56084       -7.80839        1.11103
H         -4.85528       -5.99829       -0.31623
H         -7.71596      -12.57908        4.88442
H         -5.69021      -17.12179        4.59676
H         -4.80187      -15.33653        3.21765
H         -9.06124      -13.54911        8.70831
H         -8.38357      -12.45575        7.51578
H         -6.72176      -14.69502        8.79395
H         -6.87125      -13.06462        9.44812
H         -6.14852      -13.29931        7.85698
H        -10.13492      -13.09937        5.87956
H        -10.85329      -14.21529        7.02940
H        -10.04015      -14.84117        4.14805
H        -11.66174      -14.76355        4.83586
H        -10.58460      -16.08033        5.29723
H        -10.08431      -15.86160        8.94327
H         -8.36702      -19.70917        7.96247
H         -7.01097      -18.68177        6.17298
H        -11.05981      -18.85945        9.27868
H         -5.87512      -19.09342       12.57764
H         -9.87862      -21.79472       13.89851
