93

C         -2.89054       -5.71519        2.54119
C         -1.78893       -5.07369        2.99982
C         -1.30075       -5.25216        4.32060
N         -0.92546       -5.39039        5.40688
C         -1.10973       -4.09558        2.21678
N         -0.58488       -3.28310        1.56196
C         -3.81834       -6.57873        3.32319
C         -5.06658       -6.57284        2.67387
C         -6.14529       -7.33424        3.09945
C         -5.95659       -8.16734        4.20515
C         -4.71141       -8.20156        4.86652
C         -3.64275       -7.39418        4.43492
Cl        -4.40976       -9.27400        6.19099
Cl        -7.27461       -9.18318        4.67419
C         -4.98781       -5.79469        1.41756
O         -5.90359       -5.53328        0.66822
C         -3.52877       -5.50470        1.22962
C         -3.05244       -5.45015       -0.02852
C         -1.64460       -5.81100       -0.32820
N         -0.96684       -6.65915        0.41122
C          0.21841       -6.75995       -0.23884
C          0.22166       -5.94741       -1.42334
C          1.52523       -6.10399       -2.11657
O          1.90340       -5.62276       -3.16067
C          2.25606       -7.01040       -1.19685
C          1.39183       -7.36059       -0.10018
N          2.03952       -8.17491        0.77152
C          3.21838       -8.29038        0.22529
C          3.44462       -7.57984       -1.05287
C         -0.92354       -5.28968       -1.53838
C         -1.35530       -4.37630       -2.53697
C         -0.74364       -3.21247       -2.82953
C         -1.17145       -2.15392       -3.78083
S          0.25099       -1.18115       -4.35594
C         -0.40612       -0.14486       -5.61779
C          0.31582        0.32921       -6.69387
S         -0.61641        1.38051       -7.68189
C         -1.97813        1.21657       -6.65933
C         -1.73723        0.34202       -5.62537
S         -2.95001       -0.10024       -4.44630
C         -2.50595       -1.81957       -4.12859
C         -3.62950       -2.78010       -4.24932
C         -4.60185       -2.73032       -5.18298
C         -5.51151       -3.88941       -5.45996
N         -5.19363       -5.15532       -5.29282
C         -6.26313       -5.82815       -5.80982
C         -7.26403       -4.89809       -6.27477
C         -8.43090       -5.65818       -6.79883
O         -9.48875       -5.25025       -7.22066
C         -7.98975       -7.06772       -6.63423
C         -6.67135       -7.07661       -6.04293
N         -6.25258       -8.36287       -5.88218
C         -7.26137       -9.05779       -6.33210
C         -8.43334       -8.30375       -6.82715
C         -6.85092       -3.64201       -6.11278
C         -7.46262       -2.39676       -6.45165
C         -7.84599       -2.07977       -7.70169
C         -8.33838       -0.76247       -8.07774
C         -8.90595       -0.39561       -9.24257
C         -9.31720        0.95248       -9.72857
C         -9.59715        2.05593       -8.98895
C        -10.15025        3.24410       -9.55259
N        -10.60832        4.20179      -10.01634
C         -9.44256        2.10557       -7.57143
N         -9.31072        2.15093       -6.42452
C         -9.58588        0.81906      -11.19652
C         -9.61897       -0.54266      -11.51622
C         -9.19929       -1.35608      -10.36708
O         -9.10475       -2.56414      -10.39245
C         -9.97432       -1.02937      -12.76758
C        -10.27014       -0.10428      -13.76738
C        -10.14885        1.27305      -13.50654
C         -9.79342        1.73526      -12.22394
Cl       -10.43698        2.46330      -14.72825
Cl       -10.77909       -0.71378      -15.30048
H         -7.08193       -7.32557        2.54977
H         -2.68851       -7.47141        4.94856
H         -3.72615       -5.38009       -0.87902
H          4.04033       -8.87432        0.66464
H          4.33277       -7.53918       -1.65110
H         -2.22523       -4.72270       -3.06654
H          0.17505       -2.96970       -2.28503
H          1.34400        0.12803       -6.96412
H         -2.89125        1.75352       -6.87606
H         -3.61870       -3.64567       -3.60919
H         -4.68933       -1.89382       -5.86466
H         -7.28814      -10.15855       -6.35765
H         -9.36022       -8.68575       -7.20563
H         -7.58713       -1.69152       -5.63212
H         -7.72624       -2.81621       -8.49546
H         -8.14120       -0.02156       -7.30929
H        -10.02582       -2.09942      -12.94853
H         -9.69194        2.80624      -12.07867
