123

C          1.96100       -1.48141       -1.74396
C          1.01757       -0.93831       -0.94199
C          1.36181       -0.21782        0.23570
N          1.68070        0.35433        1.19319
C         -0.36389       -0.95305       -1.29952
N         -1.48204       -0.91697       -1.60754
C          3.42578       -1.29801       -1.65619
C          3.93827       -1.34415       -2.96689
C          5.28423       -1.20110       -3.25086
C          6.15902       -1.07272       -2.16839
C          5.67141       -1.10437       -0.84228
C          4.29552       -1.20831       -0.58188
Cl         6.73007       -1.06803        0.52480
Cl         7.84440       -0.93086       -2.52076
C          2.87295       -1.75435       -3.91395
O          2.96229       -1.84805       -5.11763
C          1.72838       -2.14570       -3.02561
C          1.01822       -3.24621       -3.32973
C          0.29661       -4.10841       -2.36828
C         -0.85565       -4.79363       -2.77633
C         -1.45391       -5.68536       -1.88645
C         -0.91425       -5.92195       -0.60315
C          0.21909       -5.25535       -0.18797
C          0.83257       -4.37545       -1.08408
C         -1.67259       -6.96174        0.05869
C         -2.73475       -7.35431       -0.76799
C         -2.62641       -6.64393       -2.12349
C         -3.95879       -5.94543       -2.48508
C         -4.44102       -4.88616       -1.49028
C         -2.21393       -7.69506       -3.20940
C         -0.86930       -8.40446       -2.96792
C         -3.66327       -8.31097       -0.35988
C         -3.47937       -9.01753        0.84512
C         -2.33939       -8.65714        1.61349
C         -1.45957       -7.62277        1.25078
C         -4.44515      -10.07031        1.29325
S         -4.57236      -10.21640        3.10687
C         -5.07172      -11.88607        3.32189
C         -4.61916      -12.71793        4.32005
S         -5.39117      -14.25028        4.27059
C         -6.32691      -13.79714        2.90850
C         -6.02121      -12.52422        2.48922
S         -6.71854      -11.75417        1.08541
C         -5.26800      -10.87459        0.45885
C         -5.15426      -11.08353       -0.99431
C         -4.00435      -11.16513       -1.68305
C         -3.94450      -11.38237       -3.13765
C         -2.82836      -12.04407       -3.67477
C         -2.72419      -12.19412       -5.05325
C         -3.74515      -11.70634       -5.89989
C         -4.85354      -11.05769       -5.38415
C         -4.94138      -10.88496       -4.00217
C         -3.39224      -11.95975       -7.27635
C         -2.13300      -12.58936       -7.31931
C         -1.63458      -12.88913       -5.88867
C         -0.21821      -12.26405       -5.74220
C          0.49037      -12.44390       -4.40646
C         -1.61702      -14.42443       -5.64455
C         -2.96545      -15.13997       -5.76780
C         -1.49308      -12.82206       -8.53095
C         -2.13854      -12.43279       -9.70862
C         -3.43514      -11.88647       -9.66480
C         -4.06811      -11.64462       -8.44314
C         -1.45748      -12.57922      -10.99679
C         -0.69030      -11.64080      -11.57491
C         -0.10690      -11.63997      -12.93258
C          0.36215      -12.71982      -13.61531
C          0.98988      -12.59576      -14.89117
N          1.50244      -12.50526      -15.92280
C          0.32530      -14.03793      -13.07623
N          0.29374      -15.10809      -12.64223
C          0.04049      -10.20227      -13.31918
C         -0.13813       -9.41560      -12.17070
C         -0.47127      -10.26176      -11.01300
O         -0.52046       -9.87956       -9.86488
C         -0.07735       -8.02943      -12.17220
C          0.15686       -7.39402      -13.39075
C          0.32572       -8.15500      -14.56438
C          0.26438       -9.56038      -14.53126
Cl         0.59596       -7.41280      -16.10340
Cl         0.19224       -5.66698      -13.39882
H          5.64199       -1.24012       -4.27546
H          3.94472       -1.26532        0.44520
H          1.08690       -3.65643       -4.33896
H         -1.24893       -4.67647       -3.78291
H          0.65450       -5.43905        0.78799
H          1.77523       -3.93847       -0.76787
H         -4.75347       -6.69846       -2.57369
H         -3.87712       -5.47084       -3.47022
H         -4.58139       -5.29455       -0.48424
H         -5.40912       -4.48863       -1.81460
H         -3.74436       -4.04511       -1.42772
H         -2.15952       -7.21253       -4.19369
H         -2.98981       -8.46515       -3.28617
H         -0.02581       -7.72058       -3.11274
H         -0.73879       -9.23112       -3.67258
H         -0.79312       -8.82635       -1.96118
H         -4.50945       -8.51457       -1.00912
H         -2.10570       -9.18538        2.53551
H         -0.61338       -7.38127        1.88241
H         -3.88117      -12.51242        5.08277
H         -7.03418      -14.49148        2.47510
H         -6.09813      -11.25176       -1.51021
H         -3.04334      -11.05521       -1.18572
H         -2.06579      -12.44074       -3.01368
H         -5.63326      -10.67184       -6.03172
H         -5.79712      -10.34109       -3.60946
H         -0.25775      -11.19033       -5.96933
H          0.44621      -12.70498       -6.49863
H         -0.05286      -11.97629       -3.58542
H          1.47401      -11.96327       -4.44731
H          0.65479      -13.49921       -4.17251
H         -1.23340      -14.64109       -4.64074
H         -0.92180      -14.89424       -6.35265
H         -3.62564      -14.88613       -4.93218
H         -2.81421      -16.22423       -5.74559
H         -3.48194      -14.90253       -6.70195
H         -0.50136      -13.26112       -8.56032
H         -3.95184      -11.62089      -10.58376
H         -5.05540      -11.19651       -8.41792
H         -1.69387      -13.52118      -11.48388
H         -0.23485       -7.46734      -11.25465
H          0.37006      -10.10494      -15.46582
