109

C         11.78675      -17.80037        4.06930
C         11.13042      -18.97597        3.92646
C         11.45766      -20.12669        4.69801
N         11.73970      -21.04774        5.34451
C         10.16638      -19.17699        2.89241
N          9.42153      -19.36767        2.02365
C         13.03499      -17.57514        4.84043
C         13.75925      -16.55831        4.18995
C         14.99444      -16.11033        4.62512
C         15.51378      -16.68446        5.78647
C         14.78395      -17.67152        6.48440
C         13.53910      -18.12183        6.01010
Cl        15.35989      -18.35956        7.96273
Cl        17.04827      -16.11385        6.33741
C         12.95784      -15.97634        3.09397
O         13.30518      -15.10774        2.32425
C         11.60667      -16.60757        3.23806
C         10.54150      -15.86538        2.90162
C          9.23255      -16.06056        3.42829
S          7.86779      -15.65611        2.46582
C          6.75703      -15.97383        3.73012
C          7.41366      -16.41973        4.86064
C          8.82791      -16.45428        4.69289
C          5.34165      -15.74373        3.57026
C          4.58859      -15.79971        2.41329
C          3.21113      -15.50141        2.63796
C          2.93858      -15.22433        3.96225
S          4.36558      -15.31111        4.90769
C          1.65562      -14.89443        4.53115
S          1.26530      -15.29487        6.14345
C         -0.31026      -14.62049        6.02972
C         -0.53774      -14.10946        4.77064
C          0.59190      -14.26784        3.91001
C         -1.09646      -14.66122        7.20509
C         -2.43522      -14.74505        7.21800
C         -3.27089      -14.87366        8.44298
C         -2.80070      -14.97766        9.77768
C         -3.66977      -15.10542       10.90872
N         -3.12019      -15.18759       12.15018
C         -1.77594      -15.12122       12.31449
C         -0.95195      -15.02668       11.23585
N         -1.46939      -14.95961        9.98929
C          0.47678      -14.99669       11.31734
N          1.63527      -14.98088       11.38062
C         -1.29366      -15.11462       13.66184
N         -0.86816      -15.08563       14.74117
C         -5.07869      -15.15059       10.76748
C         -5.60461      -15.06211        9.44388
C         -4.68360      -14.92106        8.26477
N         -5.34691      -14.85468        7.09575
S         -6.96075      -14.95255        7.43576
N         -6.89897      -15.08215        9.07998
C         -6.01831      -15.30321       11.89419
S         -5.73983      -14.47259       13.36921
C         -7.06860      -15.20023       14.15898
C         -7.79642      -15.96415       13.26703
C         -7.19542      -16.02451       11.97476
C         -7.32811      -14.95492       15.55868
C         -6.52773      -14.29181       16.47056
C         -7.11709      -14.20894       17.76463
C         -8.35101      -14.82681       17.82855
S         -8.76356      -15.50386       16.30928
C         -9.23745      -14.93624       18.96398
S         -8.81717      -14.29395       20.49780
C        -10.29576      -14.78105       21.21614
C        -11.08571      -15.44520       20.29635
C        -10.48246      -15.53396       19.01199
C        -10.53302      -14.47345       22.58467
C        -11.78624      -14.34869       23.04509
C        -12.09908      -14.04027       24.42324
C        -13.32729      -13.87004       24.94009
C        -13.72027      -13.46675       26.31082
C        -13.04574      -13.71226       27.46095
C        -13.56302      -13.37050       28.74603
N        -13.99025      -13.09126       29.78379
C        -11.79337      -14.39310       27.49730
N        -10.77055      -14.94237       27.52754
C        -15.10017      -12.89868       26.19862
C        -15.59927      -13.19205       24.92101
C        -14.58562      -13.87414       24.11331
O        -14.78514      -14.31952       23.00291
C        -16.85933      -12.82068       24.47546
C        -17.66566      -12.09789       25.34958
C        -17.18846      -11.76149       26.63136
C        -15.90388      -12.15694       27.05527
Cl       -18.13695      -10.83749       27.74370
Cl       -19.22855      -11.62388       24.78915
H         15.51494      -15.31898        4.09372
H         12.99003      -18.86500        6.58172
H         10.69254      -14.96734        2.29992
H          6.91136      -16.67877        5.78527
H          9.50503      -16.71512        5.49619
H          4.99657      -16.05478        1.44327
H          2.45633      -15.51045        1.86166
H         -1.45913      -13.61820        4.48247
H          0.61959      -13.91618        2.88645
H         -0.51253      -14.66591        8.11348
H         -2.97136      -14.75663        6.27070
H         -8.71430      -16.48134       13.51968
H         -7.61580      -16.59182       11.15252
H         -5.55885      -13.86798       16.23461
H         -6.64277      -13.71061       18.60155
H        -12.06026      -15.85917       20.52736
H        -10.95759      -16.01820       18.16754
H         -9.67732      -14.32515       23.23906
H        -12.61391      -14.46980       22.35194
H        -11.21713      -13.91473       25.04654
H        -17.18611      -13.07191       23.46955
H        -15.57164      -11.84953       28.04124
