113

C          5.78863       -3.85029        3.60684
C          4.75918       -3.61817        4.45388
C          4.88591       -3.78226        5.86328
N          5.01471       -3.92355        7.00648
C          3.52364       -3.07208        3.99541
N          2.52640       -2.59220        3.63518
C          7.20318       -4.07915        3.98139
C          8.00195       -3.54619        2.95378
C          9.38546       -3.55232        2.99742
C          9.99418       -4.15654        4.10042
C          9.21118       -4.75206        5.11317
C          7.80724       -4.71441        5.05646
Cl         9.92473       -5.57378        6.45690
Cl        11.72072       -4.16901        4.14676
C          7.16399       -3.12755        1.81181
O          7.53781       -2.60079        0.78794
C          5.78618       -3.61154        2.15727
C          5.00838       -4.04912        1.15364
C          3.95043       -4.99765        1.29571
S          4.08651       -6.33859        2.36496
C          2.54434       -6.96014        1.97339
C          1.98018       -6.22444        0.94903
C          2.78951       -5.11315        0.55374
C          2.01377       -8.11310        2.66662
C          2.60470       -8.83179        3.69145
C          1.78879       -9.89785        4.16173
C          0.58855       -9.98047        3.48533
S          0.47528       -8.76586        2.28610
C         -0.47618      -10.92398        3.70606
S         -0.74502      -11.59741        5.25204
C         -2.06542      -12.55927        4.72093
C         -2.29500      -12.34092        3.37352
C         -1.39137      -11.40668        2.79348
C         -2.79761      -13.43519        5.57587
C         -2.55747      -13.56631        6.88992
C         -3.32720      -14.43177        7.72311
S         -2.52905      -15.10510        9.08300
C         -3.92830      -15.93044        9.62439
C         -4.99409      -15.71779        8.75859
C         -4.66496      -14.81676        7.68449
O         -5.43558      -14.35228        6.65748
C         -6.79524      -14.03348        6.92068
C         -7.38983      -13.46488        5.64252
O         -6.21532      -16.21031        9.09141
N         -6.88565      -16.96440        8.09294
O         -6.30065      -17.19481        7.03284
O         -8.03420      -17.25809        8.42993
C         -3.81715      -16.63289       10.86198
C         -4.48165      -17.77005       11.11666
C         -4.44946      -18.35121       12.41710
S         -4.65696      -20.04390       12.61088
C         -4.54799      -19.96726       14.32393
C         -4.37795      -18.65803       14.73524
C         -4.31884      -17.73987       13.65056
C         -4.63958      -21.15112       15.15428
C         -4.81222      -22.46668       14.76429
C         -4.85112      -23.37370       15.86776
C         -4.72575      -22.73550       17.08615
S         -4.52882      -21.04917       16.86359
C         -4.72677      -23.34559       18.39667
S         -5.29727      -22.52159       19.79019
C         -4.97458      -23.84913       20.82471
C         -4.44388      -24.90820       20.11622
C         -4.30862      -24.62247       18.72269
C         -5.23996      -23.72509       22.21439
C         -6.43593      -24.08373       22.70824
C         -6.79480      -23.91204       24.10305
C         -7.96930      -24.21151       24.68819
C         -8.43341      -23.97870       26.08611
C         -7.66912      -23.85641       27.19998
C         -8.21433      -23.73332       28.51279
N         -8.65724      -23.63332       29.57860
C         -6.24386      -23.91291       27.16954
N         -5.08867      -23.94220       27.14720
C         -9.92879      -24.07594       26.05979
C        -10.31296      -24.55935       24.79945
C         -9.15379      -24.73412       23.92348
O         -9.20885      -25.21253       22.81093
C        -11.63157      -24.79180       24.43265
C        -12.62522      -24.52033       25.37121
C        -12.27191      -24.01300       26.63994
C        -10.92442      -23.78703       26.97155
Cl       -13.46705      -23.63780       27.83450
Cl       -14.26136      -24.80783       24.91358
H          9.96573       -3.12799        2.18347
H          7.22892       -5.20422        5.83510
H          5.26767       -3.77864        0.12894
H          1.02341       -6.45591        0.49500
H          2.51318       -4.42507       -0.23722
H          3.58160       -8.61408        4.10513
H          2.08115      -10.57124        4.95914
H         -3.08424      -12.83721        2.82070
H         -1.41133      -11.11705        1.74962
H         -3.58566      -14.01602        5.10655
H         -1.74772      -13.02273        7.36946
H         -6.89308      -13.33145        7.75433
H         -7.38668      -14.91729        7.13093
H         -6.90641      -12.52448        5.36531
H         -8.46493      -13.29910        5.75828
H         -7.23790      -14.16350        4.81054
H         -3.15552      -16.20843       11.61686
H         -5.07263      -18.26611       10.35303
H         -4.30151      -18.35272       15.77198
H         -4.20800      -16.67004       13.78144
H         -4.90847      -22.78180       13.73225
H         -4.98425      -24.44327       15.75974
H         -4.15837      -25.84783       20.57416
H         -3.90298      -25.32269       18.00223
H         -4.46111      -23.29815       22.83944
H         -7.17736      -24.49254       22.02542
H         -6.00091      -23.45063       24.68528
H        -11.86977      -25.16159       23.43961
H        -10.71062      -23.37255       27.95876
