104

C         -9.76766       -0.96531        0.23903
C         -9.06781       -1.32366        1.34142
C         -9.69756       -1.52381        2.60243
N        -10.24641       -1.67734        3.61281
C         -7.68744       -1.67788        1.27070
N         -6.58118       -2.02399        1.21496
C        -11.24288       -1.01697        0.12495
C        -11.53789       -1.49143       -1.16419
C        -12.82115       -1.82406       -1.55817
C        -13.85482       -1.61468       -0.63958
C        -13.58913       -1.03303        0.61950
C        -12.27479       -0.72589        1.00438
Cl       -14.84781       -0.67937        1.75152
Cl       -15.44773       -2.08972       -1.11052
C        -10.31152       -1.49711       -1.99825
O        -10.22005       -1.86667       -3.14745
C         -9.24805       -0.88688       -1.13035
C         -8.23938       -0.19801       -1.69551
C         -7.40686        0.75255       -1.01385
S         -8.06780        1.78950        0.21418
C         -6.58028        2.55104        0.50617
C         -5.61258        2.13489       -0.37718
C         -6.08055        1.10416       -1.25602
O         -5.37868        0.53756       -2.27917
C         -4.01131        0.36457       -2.17987
C         -3.20911        0.28603       -3.25285
C         -1.76279        0.06948       -3.20438
C         -0.94976        1.02782       -3.72468
C          0.49283        0.83363       -3.75857
C          1.50004        1.61015       -4.24298
C          1.47933        2.96275       -4.92677
C          0.64553        2.92679       -6.23495
N          0.60478        4.19111       -6.97652
C          1.03125        4.10746       -3.98461
N          1.86818        4.26793       -2.79409
C          2.72776        0.84470       -3.98842
C          4.01666        1.10255       -4.27257
C          5.14271        0.12774       -3.92863
C          4.66275       -1.14026       -3.23177
C          3.37197       -1.39374       -2.94842
C          2.38785       -0.41352       -3.32518
C          1.05172       -0.41872       -3.19807
C          0.16136       -1.41648       -2.65406
C         -1.16487       -1.17339       -2.66194
C          6.18194        0.82262       -3.08026
C          7.48433        0.93896       -3.40225
C          8.44192        1.62626       -2.58400
S          8.23614        1.70623       -0.85848
C          9.70646        2.52378       -0.61889
C         10.36573        2.74128       -1.80217
C          9.64513        2.24336       -2.93005
O         10.19808        2.32364       -4.16889
C          9.46797        2.64622       -5.28481
C         10.03549        2.69727       -6.49603
C          9.28809        3.02276       -7.69273
C          9.20320        2.26547       -8.79715
C          8.48751        2.49049      -10.08447
C          7.48286        3.37700      -10.33588
C          6.80182        3.45156      -11.57642
N          6.23330        3.51436      -12.59000
C          6.99391        4.28281       -9.35590
N          6.59069        5.03662       -8.56703
C          8.99515        1.45753      -11.03500
C          9.84281        0.58005      -10.34479
C          9.95647        0.96785       -8.93527
O         10.55083        0.32883       -8.09400
C         10.50207       -0.48603      -10.94082
C         10.29267       -0.69693      -12.30180
C          9.43131        0.15112      -13.02131
C          8.79833        1.23790      -12.39230
Cl         9.08599       -0.09211      -14.69759
Cl        11.13326       -2.00477      -13.05066
H        -13.00857       -2.23134       -2.54705
H        -12.09104       -0.27153        1.97487
H         -8.08266       -0.28114       -2.77164
H         -6.50332        3.30333        1.28008
H         -4.62229        2.57141       -0.39739
H         -3.65765        0.26047       -1.16347
H         -3.63138        0.39212       -4.25047
H         -1.35874        1.94722       -4.12364
H          2.50240        3.21021       -5.24096
H         -0.38768        2.62766       -6.03974
H          1.06809        2.16888       -6.90564
H          1.54155        4.58353       -7.06202
H          0.04760        4.87885       -6.47056
H         -0.00834        3.96920       -3.67027
H          1.06992        5.05699       -4.53021
H          2.06984        5.25610       -2.64567
H          2.76718        3.80469       -2.92020
H          4.30890        2.01584       -4.77813
H          5.59495       -0.18429       -4.87953
H          5.41686       -1.87852       -2.96994
H          3.06657       -2.31020       -2.45766
H          0.56398       -2.34673       -2.27001
H         -1.84872       -1.92470       -2.27546
H          5.79789        1.24597       -2.15369
H          7.84547        0.51389       -4.33618
H         10.02476        2.79377        0.37878
H         11.32826        3.23349       -1.86300
H          8.42164        2.84987       -5.11089
H         11.09611        2.47451       -6.60268
H          8.80181        3.98945       -7.61876
H         11.16299       -1.12252      -10.35863
H          8.17299        1.87785      -13.00341
