102

C          0.31150       -6.22209       -0.83154
C         -0.58990       -7.22117       -0.98640
C         -0.47938       -8.46371       -0.30146
N         -0.38049       -9.46746        0.27056
C         -1.78403       -7.03368       -1.74907
N         -2.76266       -6.83574       -2.33772
C          1.36528       -6.14286        0.20960
C          1.57775       -4.78232        0.49978
C          2.44452       -4.34667        1.48691
C          3.15682       -5.31809        2.19300
C          3.00960       -6.68545        1.87436
C          2.11262       -7.10114        0.87595
Cl         3.91922       -7.91605        2.67969
Cl         4.22203       -4.77497        3.43974
C          0.83568       -3.93118       -0.45387
O          0.81834       -2.72013       -0.48183
C          0.23241       -4.88607       -1.43448
C          0.03360       -4.46513       -2.69262
C         -0.04027       -5.42091       -3.81913
N          0.51613       -6.60944       -3.80235
C          0.20111       -7.11718       -5.01967
C         -0.56132       -6.16536       -5.78442
C         -0.89983       -6.77456       -7.09868
O         -1.51975       -6.29898       -8.02316
C         -0.27550       -8.12035       -6.99633
C          0.36638       -8.23760       -5.71225
N          0.93918       -9.46045       -5.57930
C          0.65622      -10.03352       -6.71679
C         -0.12395       -9.24012       -7.69306
C         -0.73197       -5.04581       -5.08997
C         -1.45680       -3.85987       -5.39993
C         -0.91135       -2.63496       -5.47655
C         -1.72264       -1.48136       -5.68399
S         -1.23917        0.00751       -4.98011
C         -2.72696        0.79364       -5.34041
C         -3.60893       -0.14077       -5.88310
C         -2.89076       -1.28838       -6.40595
C         -3.50154       -2.20078       -7.45582
C         -2.51789       -2.53259       -8.58549
C         -4.74572       -1.53040       -8.07167
C         -5.71280       -1.11443       -6.96672
C         -5.12191       -0.04801       -6.00436
C         -5.73122       -0.29954       -4.63460
C         -6.86117        0.24740       -4.17000
C         -2.91800        2.19358       -4.95586
N         -4.10092        2.68737       -4.63042
C         -3.85455        3.99312       -4.32904
C         -2.46062        4.28740       -4.50096
C         -2.20357        5.72025       -4.23035
O         -1.17211        6.34927       -4.29710
C         -3.54934        6.20161       -3.86540
C         -4.48908        5.10598       -3.94866
N         -5.73117        5.55908       -3.63808
C         -5.53022        6.82474       -3.38088
C         -4.14726        7.32829       -3.50458
C         -1.79854        3.21530       -4.91292
C         -0.43774        3.13575       -5.33613
C          0.59182        3.53054       -4.57301
C          1.96097        3.37296       -4.99903
C          2.88086        2.67307       -4.32184
C          4.32789        2.50119       -4.57349
C          4.93991        2.46523       -5.78219
C          6.32658        2.16102       -5.92679
N          7.44911        1.90170       -6.03475
C          4.23241        2.64558       -7.00660
N          3.65179        2.79028       -8.00223
C          4.93752        2.16990       -3.25258
C          3.90459        1.86127       -2.35246
C          2.59639        2.04655       -2.98542
O          1.53219        1.75889       -2.48299
C          4.10935        1.52636       -1.02296
C          5.42046        1.52369       -0.55683
C          6.48176        1.84937       -1.42686
C          6.24110        2.17223       -2.77715
Cl         8.12254        1.90045       -0.88304
Cl         5.67230        1.14980        1.11011
H          2.57061       -3.28650        1.68618
H          2.03600       -8.15803        0.63614
H          0.09039       -3.40933       -2.93696
H          0.96062      -11.05763       -6.98113
H         -0.45992       -9.52728       -8.66910
H         -2.52229       -4.01734       -5.54659
H          0.14937       -2.49149       -5.28578
H         -3.82608       -3.13399       -6.98254
H         -2.13568       -1.62193       -9.06100
H         -3.00220       -3.13996       -9.35800
H         -1.65473       -3.09924       -8.22414
H         -5.24356       -2.23136       -8.75315
H         -4.46453       -0.65062       -8.66474
H         -6.00943       -2.02269       -6.42073
H         -6.63498       -0.72463       -7.41537
H         -5.38999        0.94600       -6.38004
H         -5.19158       -0.98496       -3.98059
H         -7.45202        0.93406       -4.76519
H         -7.20972        0.01358       -3.16830
H         -6.32282        7.52881       -3.08481
H         -3.76601        8.31962       -3.35838
H         -0.25919        2.71051       -6.32013
H          0.42941        3.92359       -3.56704
H          2.20036        3.91192       -5.91287
H          3.26592        1.31198       -0.37294
H          7.08555        2.44593       -3.40297
