104

C          1.06456       -2.95244       -3.86144
C         -0.22432       -3.12688       -4.23813
C         -1.02860       -2.03877       -4.68417
N         -1.65524       -1.12691       -5.03458
C         -0.81437       -4.42413       -4.32532
N         -1.29646       -5.47468       -4.43337
C          1.86472       -1.71617       -4.00126
C          3.19203       -2.09978       -4.27135
C          4.20963       -1.18733       -4.47617
C          3.89302        0.16726       -4.34560
C          2.58296        0.56964       -4.00064
C          1.55890       -0.37609       -3.83136
Cl         2.17487        2.22832       -3.73148
Cl         5.17097        1.30650       -4.57467
C          3.33823       -3.56609       -4.12006
O          4.32792       -4.22916       -4.33475
C          2.03098       -4.00199       -3.53190
C          2.05186       -4.94562       -2.57789
C          1.02702       -5.08094       -1.59451
S          0.74127       -6.61110       -0.87730
C         -0.55990       -6.03505        0.08311
C         -0.73535       -4.67784       -0.09633
C          0.19612       -4.12993       -1.02366
C         -1.34366       -6.90803        0.92600
C         -2.66958       -6.75078        1.28394
C         -3.14288       -7.81267        2.11178
C         -2.16717       -8.75056        2.38604
S         -0.69036       -8.32723        1.63164
C         -2.28655       -9.94510        3.18658
S         -3.40276      -10.05079        4.48621
C         -2.94945      -11.66262        4.87414
C         -1.95528      -12.09894        4.01591
C         -1.57533      -11.12113        3.05416
C         -3.59270      -12.33975        5.95220
C         -2.94320      -13.29630        6.63427
C         -3.47578      -14.04856        7.76557
N         -2.55208      -14.48072        8.64230
C         -3.01011      -15.16908        9.69770
C         -4.33822      -15.45499        9.88900
C         -5.20333      -15.00040        8.91290
N         -4.79640      -14.28312        7.84507
C         -6.63589      -15.29883        9.04049
C         -7.46534      -15.45260        7.99580
C         -8.83776      -15.79016        8.18624
S         -9.65838      -16.70524        6.98338
C        -11.13063      -16.73515        7.86153
C        -11.00831      -16.02813        9.04130
C         -9.69935      -15.49529        9.22887
C        -12.32159      -17.39395        7.37611
C        -13.62808      -17.03412        7.64312
C        -14.57452      -17.89727        7.01696
C        -13.97923      -18.91207        6.28897
S        -12.27016      -18.79329        6.39052
C        -14.62553      -19.95822        5.52337
S        -16.33473      -20.07398        5.43632
C        -16.29626      -21.44405        4.40207
C        -14.99121      -21.81979        4.14769
C        -14.03802      -20.97094        4.78712
C        -17.53492      -21.99426        3.97312
C        -17.66205      -22.64541        2.80789
C        -18.94079      -23.17379        2.37946
C        -19.14169      -24.23842        1.58667
C        -20.40395      -24.81259        1.06672
C        -21.64480      -24.69292        1.61379
C        -22.78148      -25.37231        1.09187
N        -23.70192      -25.92773        0.66193
C        -21.91192      -23.93304        2.79192
N        -22.13863      -23.31636        3.74536
C        -20.02666      -25.70983       -0.06645
C        -18.63236      -25.87041       -0.05350
C        -18.01987      -25.03895        0.98576
O        -16.83823      -25.03246        1.25630
C        -17.93810      -26.66853       -0.95070
C        -18.67204      -27.32988       -1.93175
C        -20.06874      -27.16374       -1.99719
C        -20.74626      -26.34976       -1.06714
Cl       -21.02150      -27.93351       -3.21879
Cl       -17.80304      -28.32090       -3.04697
H          5.22076       -1.52328       -4.68530
H          0.56641       -0.04759       -3.53430
H          2.94362       -5.56516       -2.46086
H         -1.48761       -4.09019        0.41685
H          0.22741       -3.07542       -1.26400
H         -3.29338       -5.92913        0.95349
H         -4.15987       -7.88546        2.47788
H         -1.52187      -13.09027        4.06159
H         -0.82204      -11.28989        2.29307
H         -4.60232      -12.04886        6.23446
H         -1.91112      -13.54557        6.40929
H         -2.25316      -15.49630       10.40391
H         -4.66997      -16.02508       10.74604
H         -6.98977      -15.44488       10.05657
H         -7.08606      -15.36922        6.97869
H        -11.81651      -15.90259        9.75167
H         -9.41236      -14.90939       10.09334
H        -13.90616      -16.17963        8.24790
H        -15.64633      -17.76387        7.10278
H        -14.71880      -22.67333        3.53731
H        -12.96712      -21.11050        4.69959
H        -18.39718      -21.87253        4.62611
H        -16.80969      -22.77217        2.14373
H        -19.77978      -22.59071        2.74991
H        -16.85661      -26.75409       -0.88906
H        -21.82025      -26.23588       -1.17615
