120

C          4.60798       -4.98061       -2.97235
C          5.29384       -4.01116       -2.32888
C          6.71917       -4.01966       -2.28504
N          7.88637       -4.02013       -2.28743
C          4.76560       -2.82419       -1.75408
N          4.50013       -1.82802       -1.22581
C          5.28242       -6.12548       -3.66014
C          4.49586       -6.52550       -4.74636
C          4.85602       -7.54024       -5.61897
C          6.03723       -8.23266       -5.35044
C          6.81542       -7.89782       -4.22409
C          6.43730       -6.84326       -3.37635
Cl         8.23697       -8.78212       -3.79255
Cl         6.45209       -9.54173       -6.39756
C          3.20825       -5.82222       -4.71550
O          2.31115       -5.96158       -5.52062
C          3.21397       -5.00669       -3.44288
C          1.99409       -4.69004       -2.98282
C          1.58842       -4.17285       -1.67458
C          1.41333       -2.81745       -1.31424
C          1.71383       -1.65730       -2.26868
O          2.27077       -1.91286       -3.33658
C          1.43720       -0.22864       -1.91951
C          2.24140        0.78744       -2.42410
S          1.97075        2.30331       -1.68185
C          0.66385        1.67337       -0.79025
C          0.33566        0.38248       -1.18535
C         -0.94302       -0.20734       -0.76927
O         -1.52281        0.16521        0.24903
C         -1.51748       -1.33715       -1.55327
C         -1.35892       -1.44830       -2.93934
C         -1.75785       -2.61833       -3.58861
C         -2.33073       -3.66385       -2.86303
C         -2.51849       -3.54206       -1.48785
C         -2.12852       -2.37425       -0.83587
C          0.93518       -2.58803       -0.01587
C          0.54359       -3.62955        0.84923
C          0.72139       -4.96399        0.50082
C          1.24148       -5.21169       -0.77082
C          0.41250       -6.06021        1.43710
N          0.70050       -7.38230        1.14319
C          0.39440       -8.15832        2.22286
C          0.45101       -9.49148        2.69260
C         -0.12993       -9.45219        3.94865
N         -0.49707       -8.15645        4.24115
C         -0.14194       -7.36762        3.17737
C         -0.12452       -6.02387        2.72409
C         -0.39504      -10.46250        4.90784
C         -1.56183      -11.12991        4.85698
C         -2.01986      -12.19218        5.79071
C         -2.74574      -13.36562        5.40725
C         -3.05758      -13.76608        3.97899
O         -2.69814      -13.02417        3.06708
C         -3.99371      -14.88891        3.64986
C         -5.11326      -14.53296        2.90271
S         -6.20703      -15.79607        2.62865
C         -5.21085      -16.88097        3.47238
C         -3.97735      -16.36364        3.85315
C         -2.90822      -17.23769        4.41614
O         -1.92545      -16.75351        4.97130
C         -3.01459      -18.76333        4.35282
C         -2.47860      -19.53914        5.39690
C         -2.62188      -20.93995        5.40916
C         -3.25775      -21.59365        4.35675
C         -3.72888      -20.85107        3.27969
C         -3.60411      -19.45300        3.27720
C         -3.21837      -14.19890        6.41872
C         -2.88628      -13.97928        7.75123
C         -2.27541      -12.80441        8.17107
C         -1.83096      -11.92254        7.17917
C         -2.03681      -12.50364        9.60220
C         -2.76198      -12.86320       10.68108
C         -2.50421      -12.64744       12.14038
C         -1.39488      -12.13412       12.71860
C         -1.23313      -12.04385       14.12572
N         -1.09477      -11.97072       15.28148
C         -0.24992      -11.67460       11.99825
N          0.67824      -11.30986       11.43318
C         -3.67499      -13.23317       12.88022
C         -4.51066      -13.86384       11.95684
C         -4.08747      -13.58006       10.59788
O         -4.80915      -13.81929        9.65253
C         -5.65214      -14.58557       12.27805
C         -6.02282      -14.64007       13.61263
C         -5.25651      -13.95539       14.57307
C         -4.08389      -13.25648       14.20914
Cl        -5.71897      -13.91658       16.23833
Cl        -7.44344      -15.53473       14.00923
H          4.21278       -7.80696       -6.45296
H          7.04265       -6.63338       -2.49831
H          1.12335       -5.00066       -3.57115
H          3.04296        0.70864       -3.14788
H          0.13551        2.30762       -0.09209
H         -0.89448       -0.65694       -3.52362
H         -1.60752       -2.72209       -4.66107
H         -2.63296       -4.57623       -3.37124
H         -2.94547       -4.36353       -0.91735
H         -2.22941       -2.30751        0.24613
H          0.79300       -1.58673        0.36864
H          0.08122       -3.35601        1.79486
H          1.35308       -6.24132       -1.10472
H          1.08840       -7.77118        0.29475
H          0.84835      -10.36465        2.18809
H         -0.95992       -7.81017        5.06683
H         -0.44082       -5.14838        3.27415
H          0.38134      -10.68188        5.64582
H         -2.27499      -10.87147        4.08184
H         -5.34951      -13.54925        2.51850
H         -5.58589      -17.88813        3.58045
H         -1.94186      -19.06525        6.21617
H         -2.23223      -21.52568        6.24062
H         -3.37119      -22.67703        4.36371
H         -4.19032      -21.35801        2.43389
H         -3.98318      -18.92597        2.40685
H         -3.85970      -15.04724        6.21459
H         -3.17257      -14.75434        8.45451
H         -1.34181      -10.99483        7.48143
H         -1.13517      -11.91118        9.71610
H         -6.23508      -15.06738       11.49749
H         -3.54738      -12.73530       14.99417
