146

C          5.70098      -12.80190       -3.68856
C          6.07256      -12.13163       -2.57275
C          7.03006      -12.64813       -1.65857
N          7.79474      -13.11406       -0.91265
C          5.60953      -10.80580       -2.31032
N          5.29933       -9.70607       -2.11861
C          6.39460      -13.97290       -4.27610
C          6.23837      -13.90010       -5.67360
C          6.82258      -14.80252       -6.54597
C          7.56159      -15.84908       -5.99016
C          7.66978      -15.98375       -4.58881
C          7.08368      -15.04196       -3.72593
Cl         8.50625      -17.30878       -3.85723
Cl         8.30295      -16.96678       -7.07883
C          5.28207      -12.82739       -6.02672
O          4.94219      -12.49682       -7.14110
C          4.75235      -12.34713       -4.70912
C          3.46261      -11.96633       -4.63941
C          2.61245      -11.93041       -3.43326
C          1.55725      -11.00727       -3.35460
C          0.73954      -11.02009       -2.22677
C          0.98228      -11.91648       -1.16450
C          1.97725      -12.86617       -1.25510
C          2.75903      -12.89402       -2.40912
C          0.01654      -11.70416       -0.11442
C         -0.89998      -10.71784       -0.52678
C         -0.52479      -10.19927       -1.92383
C         -0.24608       -8.67212       -1.90628
C          0.88820       -8.22044       -0.98641
C         -1.65443      -10.51328       -2.94865
C         -2.00057      -11.99465       -3.12064
C         -1.95676      -10.35532        0.29388
C         -2.07933      -10.98373        1.54734
C         -1.14094      -11.93858        1.96666
C         -0.08809      -12.30762        1.12984
C         -3.18764      -10.59686        2.43128
C         -4.34955      -11.29434        2.32782
C         -5.55238      -10.69823        2.87966
C         -6.86133      -11.04029        2.72959
C         -7.47409      -12.32941        2.20022
C         -8.80755      -12.70770        2.91623
N         -9.42422      -13.96870        2.47958
C         -7.57542      -12.38114        0.65554
N         -8.47323      -11.40222        0.04631
C         -7.57159       -9.81074        3.10047
C         -8.78218       -9.35494        2.74895
C         -9.22888       -7.92869        3.02309
C         -8.26982       -7.13052        3.89460
C         -7.05350       -7.58307        4.24191
C         -6.65616       -8.86189        3.72261
C         -5.43772       -9.38271        3.55406
C         -4.14774       -8.81347        3.84185
C         -3.07474       -9.40135        3.28584
C        -10.58191       -7.96422        3.65989
C        -11.73818       -7.92423        2.97827
C        -13.03899       -8.05450        3.64063
C        -13.16872       -8.80984        4.81589
C        -14.41410       -8.97175        5.39714
C        -15.53782       -8.34356        4.83315
C        -15.42990       -7.59386        3.67000
C        -14.17609       -7.46515        3.06482
C        -16.69264       -8.63252        5.64616
C        -16.31689       -9.48062        6.71064
C        -14.79787       -9.77962        6.65544
C        -14.54788      -11.30141        6.42378
C        -13.08996      -11.76906        6.36980
C        -14.05196       -9.20451        7.89069
C        -14.48131       -9.75765        9.24734
C        -17.27662       -9.92943        7.61513
C        -18.60786       -9.50309        7.46671
C        -18.95898       -8.63794        6.41797
C        -18.00181       -8.20169        5.49915
C        -19.64622      -10.03010        8.34969
C        -20.04918       -9.51397        9.52667
C        -20.98516      -10.08390       10.52173
C        -22.07802      -10.84435       10.26688
C        -22.98036      -11.25531       11.27996
N        -23.71417      -11.59159       12.12097
C        -22.44838      -11.23526        8.94310
N        -22.74499      -11.55682        7.87214
C        -20.60485       -9.49388       11.84164
C        -19.71785       -8.43119       11.60407
C        -19.41879       -8.31339       10.16769
O        -18.80109       -7.40265        9.65893
C        -19.16062       -7.65672       12.60938
C        -19.48960       -7.96973       13.92762
C        -20.36075       -9.04248       14.20245
C        -20.91690       -9.80883       13.15908
Cl       -20.77931       -9.48416       15.82248
Cl       -18.77220       -7.01756       15.17707
H          6.68465      -14.70457       -7.61873
H          7.16373      -15.18363       -2.65152
H          2.92455      -11.77588       -5.56808
H          1.36404      -10.30681       -4.16246
H          2.12285      -13.60072       -0.47077
H          3.47035      -13.70914       -2.50172
H         -1.15692       -8.13673       -1.60601
H         -0.01045       -8.32716       -2.92174
H          0.72098       -8.52857        0.04968
H          0.96386       -7.12802       -0.99670
H          1.85304       -8.61798       -1.31538
H         -1.37528      -10.12082       -3.93542
H         -2.57275       -9.98586       -2.65768
H         -1.14733      -12.56894       -3.49425
H         -2.81052      -12.10755       -3.84871
H         -2.33674      -12.44560       -2.18231
H         -2.67591       -9.60385       -0.02220
H         -1.23259      -12.39422        2.94946
H          0.63084      -13.04892        1.45899
H         -4.44505      -12.15287        1.67304
H         -6.77201      -13.13436        2.47091
H         -9.56354      -11.93379        2.77920
H         -8.62964      -12.78404        3.99595
H         -9.55221      -13.96800        1.46923
H        -10.37130      -14.01253        2.86155
H         -7.90922      -13.37927        0.34764
H         -6.57840      -12.26355        0.21745
H         -9.39564      -11.45575        0.47000
H         -8.59209      -11.62046       -0.94141
H         -9.44956       -9.94546        2.13795
H         -9.29065       -7.41255        2.05555
H         -8.58951       -6.14661        4.22520
H         -6.37428       -7.00121        4.85207
H         -4.06185       -7.92284        4.45135
H         -2.08328       -8.98522        3.44057
H        -10.57640       -8.06653        4.74208
H        -11.74263       -7.83082        1.89459
H        -12.29965       -9.27032        5.26831
H        -16.29666       -7.11451        3.22800
H        -14.09012       -6.88464        2.14882
H        -15.03066      -11.61467        5.48793
H        -15.03755      -11.87968        7.21666
H        -12.51762      -11.28772        5.57634
H        -13.04957      -12.84200        6.15350
H        -12.57294      -11.60556        7.31955
H        -14.16720       -8.11251        7.92579
H        -12.97389       -9.37860        7.78312
H        -15.43226       -9.31949        9.56605
H        -13.74583       -9.49339       10.01362
H        -14.58007      -10.84637        9.24126
H        -17.00322      -10.60206        8.42053
H        -19.98856       -8.30876        6.30026
H        -18.28738       -7.54068        4.68787
H        -20.04494      -10.96903        7.97653
H        -18.47405       -6.85084       12.36761
H        -21.56215      -10.64201       13.42156
