116

C          5.76008       -4.70459       -6.68021
C          6.01686       -3.45229       -6.22973
C          7.32909       -2.90455       -6.18193
N          8.40165       -2.46796       -6.13211
C          4.99081       -2.62822       -5.67487
N          4.14615       -1.98613       -5.20104
C          6.75022       -5.75532       -7.04288
C          6.10516       -7.00497       -6.97141
C          6.72569       -8.20329       -7.28371
C          8.06512       -8.15502       -7.66774
C          8.74090       -6.91884       -7.73987
C          8.07970       -5.71393       -7.43927
Cl        10.40417       -6.81383       -8.20352
Cl         8.83383       -9.65050       -8.06419
C          4.68188       -6.83591       -6.62700
O          3.87265       -7.71591       -6.42769
C          4.44373       -5.36335       -6.68935
C          3.21771       -4.97942       -7.07413
C          3.01974       -3.72035       -7.81510
N          3.92446       -3.20738       -8.61548
C          3.28025       -2.14737       -9.16344
C          1.94211       -2.04493       -8.64061
C          1.25854       -0.90314       -9.30299
O          0.12797       -0.49702       -9.15663
C          2.30644       -0.40042      -10.22795
C          3.49202       -1.20286      -10.07243
N          4.46109       -0.78055      -10.92405
C          3.88371        0.21136      -11.54517
C          2.48976        0.52557      -11.16038
C          1.70857       -3.01159       -7.75904
C          0.54746       -3.33103       -6.99510
C          0.00529       -2.47748       -6.11437
C         -1.23394       -2.73579       -5.40020
C         -2.24901       -1.85236       -5.57890
C         -3.49210       -2.01503       -4.84906
C         -4.63187       -1.27054       -4.82405
C         -5.01244       -0.04048       -5.64096
C         -4.03039        1.13339       -5.36002
N         -4.28907        2.36041       -6.11898
C         -5.12113       -0.33685       -7.16664
N         -6.15928       -1.31735       -7.50996
C         -5.45782       -1.90158       -3.77735
C         -6.58143       -1.51549       -3.14520
C         -7.19678       -2.33171       -1.99285
C         -6.50248       -3.66315       -1.74086
C         -5.37717       -4.03831       -2.36836
C         -4.80195       -3.12534       -3.31545
C         -3.61463       -3.16582       -3.93023
C         -2.52971       -4.10470       -3.78672
C         -1.39973       -3.88401       -4.48709
C         -8.66267       -2.57411       -2.24609
C         -9.61916       -2.69366       -1.30664
C        -11.01098       -2.92617       -1.75734
N        -11.31640       -3.51104       -2.89228
C        -12.67165       -3.52500       -2.88462
C        -13.17221       -2.91328       -1.68454
C        -14.66011       -2.93395       -1.72312
O        -15.46453       -2.51236       -0.92247
C        -14.92882       -3.61613       -3.00459
C        -13.68194       -3.93602       -3.64507
N        -13.91380       -4.56295       -4.82483
C        -15.21669       -4.61296       -4.87293
C        -15.95800       -4.02317       -3.73788
C        -12.17688       -2.52212       -0.89503
C        -12.21038       -1.84752        0.36693
C        -13.19437       -2.03094        1.26217
C        -13.20639       -1.39954        2.55902
C        -13.20086       -2.06992        3.72019
C        -13.23087       -1.58304        5.11595
C        -12.84681       -0.35814        5.56355
C        -12.77993       -0.02613        6.94458
N        -12.72382        0.23773        8.07462
C        -12.39819        0.67271        4.68252
N        -12.03191        1.49416        3.95795
C        -13.56249       -2.76341        5.96946
C        -13.48709       -3.91956        5.17893
C        -13.24367       -3.57492        3.77696
O        -13.12921       -4.38605        2.88233
C        -13.66280       -5.20498        5.66843
C        -13.95699       -5.34440        7.02183
C        -14.10450       -4.20150        7.83194
C        -13.91634       -2.90960        7.30391
Cl       -14.52213       -4.31643        9.50598
Cl       -14.13334       -6.94623        7.64024
H          6.17177       -9.13731       -7.25244
H          8.62285       -4.77956       -7.54618
H          2.38390       -5.67540       -7.08131
H          4.36981        0.81319      -12.32806
H          1.83792        1.27814      -11.55601
H          0.08280       -4.29559       -7.18363
H          0.46568       -1.51000       -5.91319
H         -2.13145       -1.00304       -6.24179
H         -6.00573        0.30232       -5.31909
H         -2.99985        0.84704       -5.58089
H         -4.06672        1.37405       -4.29083
H         -5.28374        2.57570       -6.13570
H         -3.82453        3.14562       -5.66280
H         -4.16158       -0.68444       -7.56393
H         -5.37173        0.58104       -7.71133
H         -6.00023       -2.18074       -6.99119
H         -6.06812       -1.56201       -8.49659
H         -7.06999       -0.58222       -3.40401
H         -7.08359       -1.73042       -1.07927
H         -6.94862       -4.33718       -1.01421
H         -4.91614       -5.00103       -2.18362
H         -2.61795       -4.93741       -3.10105
H         -0.55647       -4.55520       -4.36594
H         -8.93280       -2.68229       -3.29668
H         -9.41062       -2.65907       -0.24382
H        -15.78516       -5.06442       -5.69982
H        -17.01209       -3.95837       -3.57526
H        -11.38824       -1.17715        0.60118
H        -14.01685       -2.72036        1.07433
H        -13.24680       -0.31681        2.50336
H        -13.57440       -6.06369        5.00822
H        -14.06344       -2.05879        7.96149
