99

C          1.59248       -3.38117       -2.73261
C          1.68469       -3.61552       -1.40243
C          2.90122       -4.02082       -0.77901
N          3.89627       -4.37787       -0.30484
C          0.60323       -3.30951       -0.52152
N         -0.23939       -2.98397        0.20678
C          2.74162       -3.12577       -3.63642
C          2.33135       -2.15666       -4.57266
C          3.19099       -1.58731       -5.49585
C          4.51227       -2.03888       -5.50818
C          4.92560       -3.06547       -4.63104
C          4.03659       -3.61503       -3.69152
Cl         6.53420       -3.69951       -4.65715
Cl         5.59565       -1.30203       -6.63393
C          0.87457       -1.92329       -4.46479
O          0.21422       -1.14810       -5.12057
C          0.40234       -2.92034       -3.45043
C         -0.84143       -3.41416       -3.54866
C         -1.34730       -4.63552       -2.96041
C         -2.65242       -4.82537       -2.64295
C         -2.81841       -6.20462       -2.18568
C         -1.51200       -6.81781       -2.30315
C         -0.65089       -5.91350       -2.77714
F         -1.21902       -8.09689       -2.03854
C         -3.94471       -6.79497       -1.76173
C         -4.05834       -8.17517       -1.31705
C         -5.34430       -8.41725       -0.97935
C         -6.09513       -7.17329       -1.15470
C         -5.27145       -6.23339       -1.63525
F         -5.61689       -4.97942       -1.95292
C         -5.81822       -9.67770       -0.45698
C         -5.27759      -10.85924       -0.79970
C         -5.74404      -12.07102       -0.23234
S         -4.95681      -12.59605        1.20756
C         -5.99130      -13.95093        1.41920
C         -6.93843      -13.98886        0.41299
C         -6.71660      -12.97623       -0.62209
C         -7.48902      -12.92615       -1.81096
C         -7.23097      -12.05538       -2.98039
O         -6.12149      -11.74037       -3.36961
O         -8.35684      -11.69034       -3.63507
C         -8.49371      -13.93341       -1.86419
C         -8.74742      -14.87060       -0.81962
C         -7.97575      -14.93745        0.35029
O         -8.24650      -15.83953        1.33635
C         -5.72599      -14.80819        2.51657
C         -6.21865      -14.56134        3.75039
C         -5.71040      -15.60089        4.64214
C         -4.89843      -16.47530        3.81939
C         -4.89549      -16.00856        2.56661
F         -4.24305      -17.56082        4.24955
C         -5.95213      -15.70044        5.95514
C         -5.47210      -16.74124        6.85516
C         -5.98567      -16.50026        8.08085
C         -6.75693      -15.25661        8.02064
C         -6.74526      -14.80257        6.76590
F         -7.34755      -13.68615        6.33858
C         -5.73574      -17.33446        9.22783
C         -6.58053      -17.39430       10.26621
C         -6.35486      -18.23251       11.41918
C         -6.87868      -18.04613       12.64377
C         -6.66302      -18.82397       13.88566
C         -6.31004      -20.13195       13.98683
C         -6.21270      -20.81395       15.23202
N         -6.13410      -21.36592       16.24379
C         -6.05280      -20.95683       12.85074
N         -5.83831      -21.63463       11.93352
C         -7.07917      -17.93347       15.01761
C         -7.70287      -16.79677       14.48459
C         -7.65718      -16.81345       13.01963
O         -8.13593      -15.95194       12.31432
C         -8.23549      -15.77200       15.25435
C         -8.12742      -15.87881       16.63804
C         -7.47557      -16.98870       17.20772
C         -6.94606      -18.01326       16.39959
Cl        -7.28052      -17.15317       18.91855
Cl        -8.79979      -14.60829       17.59405
H          2.83900       -0.82550       -6.18540
H          4.37898       -4.41063       -3.03595
H         -1.54055       -2.92217       -4.22891
H         -3.44846       -4.10073       -2.72169
H          0.37634       -6.12269       -3.02465
H         -3.24414       -8.88004       -1.26325
H         -7.14643       -7.05426       -0.95104
H         -6.64843       -9.62740        0.24442
H         -4.45893      -10.92769       -1.51188
H         -9.19822      -11.91480       -3.19930
H         -9.09906      -14.03689       -2.76616
H         -9.56290      -15.57839       -0.96337
H         -9.04177      -16.34492        1.10280
H         -6.86375      -13.74470        4.03133
H         -4.37007      -16.43288        1.72761
H         -4.84949      -17.57656        6.57395
H         -7.24711      -14.78739        8.85817
H         -4.81893      -17.92010        9.22015
H         -7.49723      -16.80815       10.24194
H         -5.67914      -19.05880       11.21800
H         -8.70781      -14.91457       14.78195
H         -6.43228      -18.83389       16.88756
