128

C          2.82495       -2.19855       -4.84041
C          3.28838       -1.01594       -4.37090
C          4.27457       -0.25370       -5.06480
N          5.07437        0.35122       -5.64218
C          2.88306       -0.48610       -3.10966
N          2.54930       -0.05844       -2.08551
C          3.29018       -2.91177       -6.06628
C          2.98671       -4.27407       -5.92033
C          3.23826       -5.23131       -6.88930
C          3.77864       -4.79517       -8.09606
C          4.07025       -3.42856       -8.28837
C          3.83472       -2.48409       -7.26919
Cl         4.67817       -2.83184       -9.79371
Cl         4.00095       -5.97352       -9.33878
C          2.23549       -4.50463       -4.68192
O          1.95624       -5.59633       -4.23861
C          1.90684       -3.13472       -4.15425
C          0.82589       -2.86422       -3.40115
C         -0.09191       -3.87881       -3.00305
S          0.08351       -4.59836       -1.46720
C         -1.20632       -5.71851       -1.72281
C         -1.65301       -5.63139       -3.04944
C         -1.21140       -4.37747       -3.65665
C         -1.84164       -3.83121       -4.93841
C         -2.12658       -2.31536       -4.96203
F         -1.80416       -1.67773       -3.81726
F         -1.40287       -1.72911       -5.95144
F         -3.42631       -2.03140       -5.21231
C         -3.14851       -4.58376       -5.26362
C         -2.93239       -6.08348       -5.19868
C         -2.61181       -6.58083       -3.77499
O         -2.10517       -7.90300       -4.02880
C         -1.81523       -8.72465       -2.91719
C         -1.63755       -6.55023       -0.61527
C         -2.95468       -6.88364       -0.58424
C         -3.51572       -7.59779        0.52991
C         -4.80224       -7.95101        0.78138
C         -6.05212       -8.13412       -0.07092
C         -6.89953       -6.85296       -0.26555
N         -6.19930       -5.73877       -0.90484
C         -5.86760       -8.83663       -1.45317
N         -5.45146      -10.24047       -1.36294
C         -4.80027       -8.00886        2.24596
C         -5.72066       -7.51003        3.08880
C         -5.36368       -7.19574        4.53597
C         -4.06690       -7.84642        5.01708
C         -3.13327       -8.28881        4.15293
C         -3.43867       -8.12604        2.75866
C         -2.65950       -7.81489        1.71695
C         -1.24039       -7.58977        1.62476
C         -0.76549       -6.99789        0.50934
C         -6.54379       -7.43753        5.42717
C         -6.89392       -8.59282        6.01331
C         -8.03116       -8.60165        6.86243
S         -9.56533       -8.94260        6.23374
C        -10.41274       -8.29170        7.60763
C         -9.48109       -8.12338        8.65361
C         -8.11306       -8.47457        8.23555
C         -6.91532       -8.50638        9.18172
C         -5.94908       -9.69955        9.01151
F         -6.29299      -10.55508        8.02686
F         -4.69976       -9.24967        8.73156
F         -5.84768      -10.44167       10.14136
C         -7.37556       -8.43376       10.64495
C         -8.41115       -7.33533       10.82280
C         -9.74033       -7.68820       10.10202
O        -10.63996       -6.57684       10.17725
C        -10.94291       -6.17922       11.51449
C        -11.86670       -8.18628        7.56993
C        -12.62388       -7.98752        6.46222
C        -14.08832       -8.18959        6.21939
C        -15.12406       -7.75491        6.98062
C        -16.48208       -7.77517        6.51368
N        -17.58071       -7.78241        6.10558
C        -14.90599       -7.14876        8.24497
N        -14.73867       -6.67195        9.29782
C        -14.20536       -8.71883        4.82166
C        -12.98484       -8.47974        4.17837
C        -12.09320       -7.74155        5.07701
O        -11.24997       -6.94948        4.71234
C        -12.68260       -8.91152        2.89642
C        -13.67041       -9.60384        2.20061
C        -14.93334       -9.81735        2.79335
C        -15.19844       -9.38824        4.11248
Cl       -16.21256      -10.60915        1.93904
Cl       -13.27463      -10.19338        0.62577
H          2.96693       -6.27026       -6.72159
H          4.03970       -1.43661       -7.47066
H          0.55766       -1.84855       -3.12609
H         -1.12749       -4.04690       -5.74557
H         -3.49086       -4.31066       -6.26945
H         -3.94651       -4.30295       -4.56312
H         -2.12459       -6.36544       -5.88813
H         -3.82484       -6.60704       -5.56477
H         -3.56976       -6.63690       -3.25217
H         -2.67296       -8.82696       -2.25003
H         -0.92649       -8.36668       -2.39549
H         -1.57633       -9.72503       -3.28595
H         -3.66626       -6.50601       -1.29918
H         -6.69850       -8.82326        0.49605
H         -7.29509       -6.51413        0.69567
H         -7.77746       -7.09412       -0.87894
H         -5.43875       -5.44754       -0.28742
H         -6.83233       -4.93810       -0.93565
H         -5.17199       -8.29329       -2.09874
H         -6.83393       -8.84332       -1.97568
H         -4.47291      -10.28700       -1.08369
H         -5.50375      -10.66762       -2.28892
H         -6.66496       -7.12965        2.72006
H         -5.16926       -6.11302        4.58659
H         -3.85886       -7.85916        6.08288
H         -2.17988       -8.69137        4.47256
H         -0.59031       -7.87594        2.44450
H          0.30137       -6.80764        0.42894
H         -7.18033       -6.56019        5.55899
H         -6.32208       -9.50306        5.86318
H         -6.34236       -7.58980        8.97850
H         -6.51212       -8.24340       11.29429
H         -7.81241       -9.38971       10.96507
H         -8.01557       -6.38015       10.45106
H         -8.57422       -7.18949       11.89640
H        -10.21055       -8.54159       10.60803
H        -11.99993       -5.91166       11.56950
H        -10.34670       -5.29832       11.77712
H        -10.75547       -6.97437       12.24517
H        -12.35345       -8.39586        8.51934
H        -11.69884       -8.73460        2.47247
H        -16.17297       -9.60627        4.54057
