98

C         -4.70960       -8.11365        6.68744
C         -4.00346       -9.16489        6.21127
C         -4.63209      -10.26361        5.55707
N         -5.16585      -11.11284        4.98439
C         -2.58673       -9.24718        6.34632
N         -1.43406       -9.33190        6.47664
C         -6.17274       -8.03273        6.88440
C         -6.40916       -7.17595        7.97606
C         -7.67706       -6.94014        8.47871
C         -8.75459       -7.54147        7.82076
C         -8.54278       -8.32371        6.66439
C         -7.24484       -8.57242        6.19276
Cl        -9.85191       -8.99660        5.75661
Cl       -10.33618       -7.26532        8.45917
C         -5.14931       -6.49360        8.36845
O         -5.00713       -5.69974        9.27156
C         -4.15737       -6.91147        7.32105
C         -3.24901       -6.02318        6.87447
C         -2.63103       -6.09058        5.57832
S         -3.51916       -6.58897        4.17359
C         -2.14545       -6.55916        3.15039
C         -1.10483       -5.90715        3.78994
C         -1.37630       -5.67496        5.17362
O         -0.50603       -5.11274        6.04018
S          0.42714       -5.40443        3.06915
C         -2.27339       -7.09315        1.82657
C         -1.88553       -8.38345        1.62956
C         -1.79545       -8.89599        0.27141
C         -1.32918      -10.08334       -0.21080
C         -1.00861      -11.34507        0.59430
C         -2.29009      -12.23539        0.67708
N         -2.14104      -13.46217        1.47136
C          0.19710      -12.19642        0.13091
N          1.48727      -11.52080        0.23840
C         -1.16061       -9.81890       -1.65201
C         -0.38549      -10.38285       -2.59361
C         -0.17805       -9.74964       -3.96777
C         -1.11632       -8.59300       -4.27364
C         -1.90983       -8.03998       -3.34309
C         -1.80554       -8.55101       -2.00295
C         -2.16128       -7.99282       -0.84195
C         -2.76993       -6.71551       -0.57373
C         -2.80690       -6.29361        0.70365
C         -0.24105      -10.81676       -5.01423
C         -1.35727      -11.21354       -5.64195
C         -1.33385      -12.27080       -6.58553
S         -2.74530      -13.23895       -6.75855
C         -2.04467      -14.19221       -8.00308
C         -0.73797      -13.81623       -8.23886
C         -0.33940      -12.71964       -7.43427
O          0.88642      -12.14979       -7.47359
S          0.36336      -14.56852       -9.39169
C         -2.82636      -15.22002       -8.59024
C         -3.61433      -15.01720       -9.65680
C         -4.52965      -15.96345      -10.33360
C         -4.39518      -17.31262      -10.40020
C         -5.27732      -18.13050      -11.15428
N         -6.00281      -18.80039      -11.76775
C         -3.32305      -18.01392       -9.78361
N         -2.43362      -18.56314       -9.27365
C         -5.51895      -15.12874      -11.08292
C         -5.07196      -13.79844      -11.07776
C         -3.85434      -13.66265      -10.27252
O         -3.22557      -12.63352      -10.14956
C         -5.74139      -12.75452      -11.69992
C         -6.93887      -13.04916      -12.34709
C         -7.43488      -14.36699      -12.34303
C         -6.72671      -15.40800      -11.70972
Cl        -8.93954      -14.77737      -13.09117
Cl        -7.77598      -11.74702      -13.11184
H         -7.82324       -6.28895        9.33576
H         -7.10735       -9.15170        5.28407
H         -3.03370       -5.13263        7.46607
H          0.33106       -4.92950        5.57094
H          0.11735       -5.53133        1.77094
H         -1.50900       -9.00400        2.43594
H         -0.78202      -11.03427        1.62369
H         -2.62869      -12.51265       -0.32766
H         -3.09817      -11.65633        1.14111
H         -1.48793      -14.10259        1.02135
H         -3.02961      -13.96306        1.49656
H          0.03254      -12.56536       -0.88498
H          0.28661      -13.09729        0.74515
H          1.41875      -10.55689       -0.07848
H          2.16675      -11.99403       -0.35437
H          0.21899      -11.25627       -2.40110
H          0.84063       -9.33635       -3.98958
H         -1.12419       -8.20772       -5.29055
H         -2.58030       -7.22359       -3.58013
H         -3.17997       -6.12460       -1.38412
H         -3.25975       -5.33540        0.94245
H          0.71131      -11.29981       -5.22243
H         -2.31168      -10.75055       -5.40151
H          1.42295      -12.59750       -8.15199
H         -0.19251      -15.78684       -9.42536
H         -2.76015      -16.17687       -8.08501
H         -5.34701      -11.74269      -11.65919
H         -7.16250      -16.40186      -11.71390
