128

C          1.31298       -5.98831        9.41435
C          1.69043       -4.87657       10.10027
C          1.89669       -4.84816       11.50441
N          2.05462       -4.81876       12.64827
C          1.91208       -3.63185        9.43515
N          2.08297       -2.61440        8.89463
C          1.09043       -7.35371       10.01221
C          0.80228       -8.23832        8.96301
C          0.37513       -9.54415        9.13371
C          0.32521      -10.04164       10.42899
C          0.74564       -9.23379       11.50237
C          1.10631       -7.88271       11.29939
Cl         0.87427       -9.86365       13.10941
Cl        -0.25340      -11.65366       10.64477
C          1.02676       -7.59547        7.67309
O          1.26590       -8.17345        6.63406
C          1.05673       -6.12877        7.94925
C          0.70545       -5.25656        6.97556
C          0.22428       -5.61011        5.65045
N          0.78960       -5.17382        4.44524
C          2.02350       -4.42510        4.28915
C          3.25899       -5.31369        4.20137
C          0.07821       -5.66209        3.32055
O          0.27983       -5.46832        2.13816
C         -0.99624       -6.46818        3.92651
C         -0.84792       -6.36753        5.34927
C         -1.90344       -7.16877        5.98096
O         -2.10060       -7.30144        7.16947
N         -2.56754       -7.74213        4.87125
C         -3.62620       -8.71318        5.05403
C         -3.09952      -10.03375        5.60590
C         -2.03060       -7.29263        3.65739
C         -2.46911       -7.70065        2.32404
C         -2.34679       -9.00491        1.94200
C         -2.30012       -9.32245        0.52029
C         -1.93875      -10.47058       -0.11512
C         -1.90616      -11.91896        0.34727
C         -0.59413      -12.24811        1.09421
N         -0.46708      -13.66457        1.45201
C         -3.19994      -12.27782        1.15510
N         -3.27800      -13.65756        1.66023
C         -1.41758       -9.98195       -1.40286
C         -0.45112      -10.47736       -2.19680
C          0.19403       -9.62708       -3.29444
C         -0.54095       -8.31476       -3.57682
C         -1.52210       -7.83926       -2.79099
C         -1.82187       -8.59364       -1.60782
C         -2.34777       -8.20196       -0.44262
C         -2.84209       -6.92198       -0.01495
C         -2.90460       -6.69737        1.31181
C          0.28800      -10.40791       -4.56890
C          1.41171      -10.65335       -5.26788
C          1.36280      -11.19407       -6.60063
N          2.31302      -12.04333       -7.17437
C          3.47661      -12.61558       -6.52699
C          3.22467      -14.03322       -6.03273
C          1.95390      -12.39515       -8.49670
O          2.53090      -13.08684       -9.31331
C          0.67328      -11.69188       -8.69103
C          0.41669      -10.92664       -7.50827
C         -0.83512      -10.17931       -7.71217
O         -1.36207       -9.38497       -6.96049
N         -1.24956      -10.61112       -8.98711
C         -2.49000      -10.13932       -9.56804
C         -2.47929       -8.63267       -9.79832
C         -0.36858      -11.55303       -9.51458
C         -0.60746      -12.24960      -10.74976
C         -0.62739      -13.58387      -10.90223
C         -0.64082      -14.36474      -12.15080
C         -1.39804      -14.11944      -13.24646
C         -1.41758      -14.99223      -14.36964
N         -1.42021      -15.70939      -15.28143
C         -2.28687      -13.01005      -13.31073
N         -3.00971      -12.09792      -13.33252
C          0.19092      -15.57107      -11.87630
C          0.34576      -15.68643      -10.48281
C         -0.31264      -14.55967       -9.80514
O         -0.55515      -14.47329       -8.62079
C          1.12647      -16.65389       -9.87270
C          1.81222      -17.54006      -10.70186
C          1.67860      -17.45032      -12.10430
C          0.86294      -16.46612      -12.69551
Cl         2.53306      -18.51110      -13.17103
Cl         2.85422      -18.69319       -9.94687
H          0.07926      -10.13991        8.27429
H          1.39497       -7.30478       12.17196
H          0.64015       -4.19405        7.17180
H          2.12376       -3.70221        5.10354
H          1.95543       -3.85429        3.35357
H          3.33416       -5.99338        5.05595
H          4.16501       -4.69804        4.17430
H          3.24523       -5.92138        3.28973
H         -4.16428       -8.87975        4.11679
H         -4.33979       -8.29377        5.77230
H         -2.31608      -10.45374        4.96708
H         -3.91009      -10.76431        5.68478
H         -2.67145       -9.90325        6.60597
H         -2.00199       -9.76365        2.63314
H         -1.94197      -12.54941       -0.55486
H         -0.52099      -11.64675        2.00596
H          0.26485      -11.99736        0.46371
H         -1.32628      -13.92552        1.95982
H          0.29505      -13.78698        2.11502
H         -4.07624      -12.11124        0.51538
H         -3.30910      -11.62183        2.02258
H         -3.19296      -14.30589        0.87404
H         -4.20009      -13.82237        2.06468
H          0.00398      -11.43987       -1.98929
H          1.20453       -9.35747       -2.95657
H         -0.23982       -7.74217       -4.45184
H         -2.02772       -6.90460       -3.00155
H         -3.14733       -6.18492       -0.74896
H         -3.27323       -5.74219        1.67392
H         -0.68333      -10.69387       -4.97010
H          2.37944      -10.35782       -4.87351
H          3.80717      -11.97679       -5.70283
H          4.29090      -12.64508       -7.26122
H          2.36966      -14.07170       -5.35068
H          4.10481      -14.41321       -5.50355
H          3.01794      -14.71122       -6.86800
H         -3.29951      -10.39340       -8.87429
H         -2.68760      -10.64917      -10.51451
H         -2.36480       -8.07962       -8.86039
H         -3.41930       -8.31037      -10.25491
H         -1.65286       -8.34165      -10.45449
H         -0.71971      -11.58882      -11.60478
H          1.23984      -16.67359       -8.79269
H          0.81802      -16.40309      -13.77862
