99

C         -3.95374       -1.43904        5.96774
C         -4.43566       -0.67664        4.96334
C         -5.83455       -0.48077        4.76710
N         -6.97338       -0.35059        4.60749
C         -3.55913        0.03905        4.09920
N         -2.82861        0.59985        3.39419
C         -4.73906       -2.03007        7.07993
C         -3.90737       -2.07623        8.21333
C         -4.29521       -2.64200        9.41347
C         -5.54839       -3.25659        9.45443
C         -6.37036       -3.28968        8.30527
C         -5.97320       -2.65989        7.11429
Cl        -7.86449       -4.16061        8.27435
Cl        -6.00610       -4.02530       10.93246
C         -2.53079       -1.68450        7.84291
O         -1.58744       -1.53376        8.58658
C         -2.55204       -1.64791        6.33864
C         -1.49830       -2.21042        5.71492
C         -1.37049       -2.77916        4.35351
C         -0.14786       -2.72974        3.66942
C          1.19420       -2.30600        4.10984
O          1.40293       -1.79969        5.19448
N          2.08633       -2.64166        3.11301
C          1.43149       -3.19328        2.03772
O          1.86631       -3.62498        0.98561
C          0.01674       -3.26276        2.38967
C         -1.00939       -3.85626        1.68098
C         -2.20286       -3.99188        2.37215
C         -2.36093       -3.53358        3.69056
C         -3.56733       -4.14250        4.27338
O         -3.76115       -4.28532        5.46408
S         -4.63715       -4.77721        3.04888
C         -3.37513       -4.69315        1.84923
O         -3.45584       -5.14273        0.72289
C          3.46401       -2.53162        3.15895
C          4.19469       -2.07608        4.19729
C          5.61711       -2.06215        4.08121
C          6.56675       -3.02076        4.46682
C          6.21495       -4.16343        5.25403
N          5.89554       -5.06172        5.91455
C          7.76873       -2.76913        3.77585
C          7.76190       -1.60948        3.07981
S          6.37341       -0.71004        3.27740
S          9.05422       -1.42570        2.01608
C          9.49175       -3.01609        2.35909
C          8.85980       -3.55988        3.41882
C          9.35168       -4.82627        3.77554
C          9.17095       -5.52714        5.01137
N          9.14411       -6.13774        5.99758
C         10.08955       -5.35775        2.69868
S         10.41736       -4.10937        1.51510
C         10.53650       -6.74559        2.41768
C          9.71207       -7.85402        2.68503
C          8.35017       -7.98658        3.23814
O          7.54712       -7.07585        3.24988
N          8.18276       -9.30767        3.59959
C          9.18599      -10.07646        3.06820
O          9.37990      -11.28190        3.06139
C         10.13699       -9.16106        2.45868
C         11.31729       -9.47924        1.82450
C         12.11937       -8.40091        1.49832
C         11.78440       -7.08167        1.84313
C         12.95507       -6.21593        1.62741
O         13.14991       -5.15656        2.19283
S         14.15098       -6.97444        0.59859
C         13.40349       -8.52990        0.81503
O         13.86603       -9.58877        0.43436
C          7.14813       -9.74621        4.39689
C          6.98355      -11.00884        4.82458
C          5.93385      -11.44369        5.71951
C          5.74243      -11.04171        6.98621
C          4.77807      -11.52918        7.99740
C          3.52529      -11.99219        7.76295
C          2.61686      -12.31395        8.80994
N          1.87797      -12.56633        9.66782
C          2.98588      -12.11519        6.44862
N          2.54809      -12.21930        5.37913
C          5.37594      -11.21801        9.33255
C          6.48217      -10.37825        9.13378
C          6.69358      -10.12858        7.70627
O          7.49239       -9.33525        7.25973
C          7.28469       -9.89473       10.15598
C          6.96088      -10.26311       11.45820
C          5.85824      -11.10702       11.69751
C          5.07168      -11.59543       10.63413
Cl         5.40951      -11.58693       13.29764
Cl         7.95919       -9.65940       12.73106
H         -3.61376       -2.67054       10.25837
H         -6.59049       -2.75637        6.22529
H         -0.60609       -2.36303        6.33080
H         -0.86278       -4.27287        0.68834
H          3.96088       -2.88320        2.25314
H          3.75722       -1.72812        5.12219
H         11.60840      -10.50815        1.63395
H          6.47725       -8.95901        4.74231
H          7.64934      -11.80621        4.50383
H          5.33813      -12.24333        5.28475
H          8.13769       -9.25924        9.93252
H          4.24904      -12.26331       10.86861
