103

C         -1.39924        0.19674        0.74697
C         -2.62721       -0.26627        1.05314
C         -3.24501        0.02349        2.30181
N         -3.72697        0.25878        3.33352
C         -3.48238       -0.96712        0.15282
N         -4.25580       -1.55786       -0.47024
C         -0.67248        1.20911        1.55583
C          0.00985        2.06227        0.67144
C          0.75795        3.14373        1.09956
C          0.86576        3.34603        2.47824
C          0.24149        2.46117        3.38457
C         -0.53451        1.38796        2.92320
Cl         0.41487        2.62281        5.09751
Cl         1.81705        4.68295        3.01749
C         -0.07476        1.52853       -0.70559
O          0.35895        2.03866       -1.71502
C         -0.70506        0.17006       -0.54077
C         -0.16244       -0.81139       -1.27916
C         -0.10134       -2.24232       -0.96097
C          0.95727       -2.77197       -0.21065
C          2.05740       -2.10660        0.50480
O          2.17510       -0.89523        0.52851
N          2.80012       -3.08763        1.12602
C          2.29242       -4.33689        0.84036
O          2.67403       -5.43770        1.19525
C          1.10190       -4.13768        0.01238
C          0.19389       -5.06574       -0.46182
C         -0.88340       -4.54597       -1.17828
C         -1.02058       -3.17810       -1.44389
C         -2.18746       -2.90264       -2.28799
O         -2.43161       -1.81134       -2.76934
S         -3.14903       -4.34086       -2.54399
C         -1.98066       -5.34166       -1.72265
O         -2.05836       -6.54983       -1.59771
C          3.86695       -2.90458        1.99143
C          4.37061       -1.73015        2.40989
C          5.45236       -1.61699        3.34777
S          5.47016       -0.26986        4.41742
C          7.03070       -0.62075        5.05425
C          7.40736       -1.91949        4.66493
C          6.55432       -2.42388        3.59271
C          6.84979       -3.71361        2.86510
C          8.25629       -4.25854        3.12616
C          8.33949       -5.61062        2.54555
N          8.38067       -6.67047        2.07837
C          8.48537       -4.24631        4.64103
C          9.67971       -5.09827        5.03869
N         10.67052       -5.80503        5.36858
C          8.57656       -2.78143        5.15362
C          7.68808        0.39031        5.94393
C          8.18992        0.01922        7.19736
C          7.91592       -1.14461        8.04233
O          6.96330       -1.88428        7.87351
N          8.85973       -1.16872        9.04064
C          9.58869       -0.00158        9.04635
O         10.51775        0.37344        9.73645
C          9.08949        0.79391        7.92551
C          9.42620        2.07616        7.56605
C          8.78740        2.55314        6.42988
C          7.96465        1.74592        5.60807
C          7.51793        2.54423        4.44095
O          6.90915        2.13259        3.47490
S          8.00082        4.23288        4.55673
C          8.91976        3.94097        5.99683
O          9.57354        4.77804        6.59155
C          9.01067       -2.25760        9.86750
C          9.91107       -2.41223       10.84711
C         10.03330       -3.67670       11.54281
C          9.95429       -3.87339       12.86688
C         10.11816       -5.11864       13.65272
C          9.88199       -6.38959       13.23821
C          9.93824       -7.51082       14.11488
N          9.98118       -8.41822       14.83658
C          9.46663       -6.70132       11.91052
N          9.12010       -6.94169       10.82981
C         10.37336       -4.69444       15.06216
C         10.09049       -3.32433       15.17015
C          9.77725       -2.75326       13.85312
O          9.46101       -1.60039       13.65131
C         10.15971       -2.61808       16.36161
C         10.56633       -3.30901       17.50185
C         10.91473       -4.67101       17.41542
C         10.82352       -5.36398       16.19347
Cl        11.47732       -5.56018       18.78810
Cl        10.63909       -2.43028       18.98642
H          1.27265        3.77915        0.38513
H         -0.98412        0.70634        3.63951
H          0.48183       -0.53140       -2.11735
H          0.30509       -6.13074       -0.27512
H          4.26435       -3.84404        2.36396
H          3.93700       -0.79425        2.06732
H          6.70964       -3.57679        1.78552
H          6.11739       -4.46141        3.20014
H          9.00137       -3.61861        2.63432
H          7.62235       -4.72226        5.13317
H          9.52031       -2.31411        4.85130
H          8.57492       -2.82517        6.24441
H         10.11201        2.68164        8.15241
H          8.32028       -3.07385        9.64675
H         10.60729       -1.62453       11.12654
H         10.23398       -4.50090       10.86227
H          9.91453       -1.55997       16.39134
H         11.12421       -6.40689       16.17006
