99

C         -1.88996       -6.52203        5.20265
C         -1.13462       -7.59334        5.54159
C         -1.52584       -8.50172        6.56658
N         -1.86303       -9.23219        7.39989
C          0.12705       -7.86168        4.93902
N          1.14340       -8.09734        4.42455
C         -3.16117       -6.08579        5.84213
C         -3.33662       -4.71487        5.58936
C         -4.43840       -3.99131        6.01587
C         -5.44933       -4.69026        6.67472
C         -5.33005       -6.07953        6.88954
C         -4.17849       -6.77865        6.48203
Cl        -6.60330       -7.00542        7.60495
Cl        -6.85563       -3.80263        7.14155
C         -2.30400       -4.23318        4.65890
O         -2.18112       -3.09804        4.24715
C         -1.54025       -5.46016        4.24673
C         -0.90794       -5.56504        3.06701
C         -0.84229       -4.47792        2.09019
C          0.19585       -3.55496        2.10255
C          1.40850       -3.49449        2.92617
O          1.58643       -4.22412        3.88455
N          2.20419       -2.50972        2.38469
C          1.52747       -1.82245        1.40080
O          1.85348       -0.84305        0.75592
C          0.26008       -2.51035        1.19073
C         -0.70867       -2.29248        0.22658
C         -1.74998       -3.21423        0.20167
C         -1.81628       -4.28634        1.09842
C         -2.97049       -5.15201        0.82968
O         -3.22831       -6.17276        1.44270
S         -3.92204       -4.55854       -0.51484
C         -2.84652       -3.20467       -0.76305
O         -2.97600       -2.36670       -1.63619
C          3.49680       -2.18635        2.74216
C          4.23303       -2.77026        3.69826
C          5.51456       -2.23340        4.00737
O          5.65821       -1.25949        4.99892
C          6.94854       -0.90924        4.99201
C          8.05494       -0.72511        5.96371
C          8.87430       -1.66404        5.03586
C          7.67013       -1.70146        4.17365
C          6.80074       -2.58542        3.54033
C          7.07339       -3.67254        2.65575
C          8.14874       -3.80309        1.86043
C          8.34781       -4.89865        0.88563
C          8.89147       -4.60352       -0.37782
C          9.30510       -3.32697       -0.98542
O          9.19192       -2.26466       -0.40429
N          9.79859       -3.60164       -2.24593
C          9.70983       -4.94310       -2.52074
O         10.02238       -5.56442       -3.51934
C          9.12989       -5.57804       -1.34239
C          8.84029       -6.90897       -1.14413
C          8.29716       -7.22449        0.09513
C          8.06497       -6.26718        1.10033
C          7.55069       -6.93064        2.31879
O          7.36737       -6.40706        3.39937
S          7.25055       -8.64117        2.06381
C          7.92607       -8.58512        0.46655
O          8.07169       -9.54751       -0.26474
C         10.30426       -2.69532       -3.15755
C         10.37283       -1.36872       -2.97673
C         10.87510       -0.44568       -3.97371
C         10.56895        0.86300       -4.05794
C         10.95544        1.86837       -5.07457
C         12.06242        1.85289       -5.86205
C         12.38201        2.90803       -6.75795
N         12.64293        3.77427       -7.49638
C         13.02915        0.80870       -5.82495
N         13.81588       -0.04600       -5.79921
C          9.96764        2.98941       -4.96287
C          9.18585        2.78003       -3.81988
C          9.53877        1.51676       -3.17219
O          9.03667        1.12793       -2.14018
C          8.17920        3.63672       -3.39532
C          7.93024        4.77121       -4.16013
C          8.67817        5.00459       -5.33030
C          9.69077        4.11111       -5.73585
Cl         8.39633        6.38636       -6.33095
Cl         6.68669        5.84171       -3.62574
H         -4.52899       -2.93275        5.78999
H         -4.13986       -7.85479        6.62550
H         -0.47789       -6.50065        2.72252
H         -0.63807       -1.47541       -0.48572
H          3.92530       -1.36813        2.16152
H          3.87181       -3.58466        4.31611
H          7.82213       -1.04924        6.98175
H          8.43058        0.30388        6.00570
H          9.18512       -2.63224        5.43979
H          9.74371       -1.18743        4.57102
H          6.30196       -4.43524        2.62011
H          8.89086       -3.00273        1.84942
H          9.03083       -7.66049       -1.90517
H         10.63902       -3.13827       -4.09643
H         10.02912       -0.93096       -2.04402
H         11.52304       -0.91671       -4.70676
H          7.60574        3.41313       -2.49848
H         10.21847        4.32790       -6.65756
