124

C          2.17934       -6.12543      -10.30259
C          3.01853       -6.05175       -9.24167
C          3.70524       -4.85008       -8.90294
N          4.23048       -3.84595       -8.64004
C          3.42092       -7.23259       -8.53115
N          3.80728       -8.18105       -8.00484
C          2.24994       -5.19255      -11.45088
C          2.23726       -5.98110      -12.61870
C          2.44822       -5.45188      -13.87788
C          2.59570       -4.06461      -13.97227
C          2.48624       -3.24862      -12.82249
C          2.32256       -3.81526      -11.54928
Cl         2.53349       -1.52287      -12.91441
Cl         2.89894       -3.40085      -15.53832
C          1.85246       -7.37402      -12.27895
O          1.75886       -8.31600      -13.03362
C          1.51328       -7.31931      -10.81720
C          0.46922       -8.03320      -10.36295
C         -0.21656       -7.73990       -9.15752
S          0.21367       -8.40566       -7.63781
C         -1.09632       -7.64450       -6.80561
C         -1.74462       -6.85852       -7.70146
C         -1.34906       -6.97097       -9.03402
S         -2.35447       -6.07566      -10.23258
C         -3.12713       -5.30153       -8.82729
C         -3.97972       -4.15023       -9.10632
O         -3.87637       -3.50252      -10.15304
C         -4.99542       -3.67999       -8.07850
C         -4.40674       -2.65990       -7.12108
C         -2.77084       -5.88009       -7.60937
F         -3.24825       -5.46446       -6.46510
C         -1.31099       -7.92510       -5.43893
C         -2.55404       -7.92977       -4.94118
C         -2.90260       -8.19021       -3.55634
C         -4.21979       -8.12613       -3.23188
C         -4.63308       -8.23680       -1.85387
C         -5.85586       -8.13704       -1.26608
C         -7.26868       -7.99447       -1.83696
C         -7.46232       -6.75700       -2.75480
N         -8.81856       -6.62575       -3.31125
C         -7.81303       -9.30022       -2.49211
N         -7.19234       -9.68328       -3.76323
C         -5.53027       -8.08394        0.16895
C         -6.25457       -7.70285        1.22919
C         -5.62931       -7.54289        2.61045
C         -4.19151       -8.02807        2.72743
C         -3.47501       -8.42472        1.66494
C         -4.11043       -8.34359        0.38180
C         -3.57309       -8.41515       -0.83560
C         -2.19835       -8.58056       -1.21366
C         -1.89309       -8.46840       -2.51519
C         -6.47329       -8.26929        3.60016
C         -7.48647       -7.70280        4.26930
C         -8.23947       -8.46893        5.18091
S         -8.52060      -10.15866        5.04550
C         -9.32303      -10.25792        6.56312
C         -9.40814       -8.99744        7.06023
C         -8.83107       -7.97833        6.30788
S         -8.92577       -6.31037        6.96729
C         -9.76466       -7.03354        8.33389
C        -10.22248       -6.19282        9.44343
O        -10.81786       -6.65720       10.41493
C         -9.92876       -4.70448        9.35109
C        -10.43990       -3.92348       10.54325
C         -9.92110       -8.41647        8.24519
F        -10.48970       -9.11427        9.19344
C         -9.75217      -11.52885        7.00911
C        -10.87444      -11.64741        7.72551
C        -11.38341      -12.92173        8.14417
C        -12.66209      -13.18551        8.44194
C        -13.25082      -14.45540        8.89977
C        -12.78161      -15.70081        8.61510
C        -13.46740      -16.87262        9.04621
N        -14.02520      -17.83007        9.40518
C        -11.62448      -15.95207        7.82802
N        -10.67353      -16.15584        7.18517
C        -14.54431      -14.09971        9.55951
C        -14.83692      -12.75550        9.26998
C        -13.74987      -12.14598        8.49696
O        -13.77762      -11.02674        8.03106
C        -15.97051      -12.09413        9.71978
C        -16.85961      -12.80934       10.51738
C        -16.58810      -14.15224       10.84632
C        -15.42840      -14.79680       10.37050
Cl       -17.64600      -15.07667       11.85511
Cl       -18.26478      -11.98412       11.08844
H          2.47693       -6.09265      -14.75433
H          2.23922       -3.17667      -10.67409
H          0.01787       -8.78629      -11.00820
H         -5.44214       -4.52490       -7.54692
H         -5.81301       -3.20363       -8.63801
H         -3.62953       -3.10272       -6.49358
H         -5.18509       -2.25886       -6.46369
H         -3.95495       -1.82240       -7.66322
H         -0.45123       -8.18297       -4.83334
H         -3.40262       -7.70707       -5.58757
H         -4.97857       -7.90802       -3.97039
H         -7.94184       -7.82446       -0.98461
H         -6.76381       -6.77020       -3.59348
H         -7.25509       -5.84839       -2.17876
H         -9.02985       -7.42197       -3.91288
H         -8.85812       -5.80870       -3.92054
H         -8.89114       -9.18546       -2.67169
H         -7.72860      -10.13634       -1.78946
H         -7.27414       -8.93327       -4.44408
H         -7.69128      -10.48322       -4.15284
H         -7.29647       -7.42228        1.12424
H         -5.61961       -6.47204        2.84870
H         -3.73276       -8.04690        3.71296
H         -2.45204       -8.77180        1.75708
H         -1.43069       -8.76363       -0.47147
H         -0.85362       -8.57229       -2.80370
H         -6.22936       -9.32035        3.73742
H         -7.71842       -6.64803        4.13117
H        -10.39988       -4.30528        8.44492
H         -8.84350       -4.56913        9.28672
H        -11.53410       -3.93333       10.57071
H        -10.10610       -2.88237       10.47690
H        -10.07000       -4.34547       11.48251
H         -9.19900      -12.40858        6.68535
H        -11.45937      -10.76710        7.97514
H        -10.61541      -13.68571        8.22487
H        -16.13675      -11.04887        9.47114
H        -15.24981      -15.82366       10.67243
