110

C          3.56809       -6.50456       -0.42340
C          3.00482       -6.76924        0.78300
C          2.07921       -7.84312        0.95789
N          1.42258       -8.78592        1.13754
C          3.53755       -6.22212        1.98975
N          4.02284       -5.79120        2.94841
C          4.96100       -6.01712       -0.52233
C          5.65606       -6.95395       -1.30579
C          7.03733       -6.97818       -1.36481
C          7.72683       -5.95747       -0.69780
C          7.02376       -4.91088       -0.05732
C          5.62633       -4.94310        0.03965
Cl         7.83220       -3.55569        0.64806
Cl         9.45336       -6.03830       -0.67885
C          4.67759       -7.80714       -2.03531
O          4.92921       -8.69988       -2.81105
C          3.32401       -7.26171       -1.64275
C          2.26554       -7.34681       -2.45898
C          1.02471       -6.65234       -2.29756
S         -0.28441       -7.46927       -1.54126
C         -1.42534       -6.25597       -1.93936
C         -0.85067       -5.35915       -2.82329
C          0.60012       -5.40154       -2.74972
C          1.43556       -4.23469       -3.25732
O          2.35334       -3.83311       -2.22242
C          3.18362       -2.72964       -2.56657
C          0.52795       -3.02593       -3.61824
C         -0.67575       -3.41466       -4.45160
C         -1.59772       -4.39957       -3.71885
O         -2.42323       -5.08556       -4.68335
C         -1.73902       -5.96356       -5.57517
C         -2.77338       -6.24546       -1.40208
S         -3.57062       -7.71377       -0.88039
C         -4.73665       -6.76991       -0.18406
C         -4.56654       -5.42665       -0.44669
N         -3.43030       -5.10881       -1.14683
C         -5.58092       -4.57384        0.30516
C         -6.26252       -5.68376        1.11197
C         -5.76830       -6.92347        0.76195
S         -6.36823       -8.19697        1.62685
C         -7.23815       -7.10139        2.67615
C         -7.17423       -5.78868        2.19415
C         -7.91632       -7.61166        3.82225
C         -7.38271       -8.58627        4.58551
C         -8.16808       -9.15433        5.61623
S         -9.15503      -10.49941        5.25717
C        -10.13527      -10.26300        6.65675
C         -9.53025       -9.29821        7.47050
C         -8.22730       -8.91217        6.97517
C         -7.22957       -8.17384        7.82910
O         -5.87833       -8.63361        7.64281
C         -5.60943       -9.96236        8.08019
C         -7.61621       -8.23012        9.32244
C         -9.06748       -7.83968        9.55178
C        -10.08343       -8.68332        8.74166
O        -11.26901       -7.90702        8.48749
C        -11.09101       -6.76515        7.64940
C        -11.27894      -11.09694        6.91296
C        -12.09776      -11.65611        5.99871
C        -13.04651      -12.77502        6.20014
C        -13.93695      -12.92299        7.20724
C        -14.94342      -13.92593        7.18782
N        -15.76295      -14.75221        7.15315
C        -14.01267      -11.99506        8.28300
N        -14.05038      -11.24855        9.17983
C        -12.99243      -13.58865        4.94919
C        -12.41398      -12.79529        3.94949
C        -12.04673      -11.47987        4.50564
O        -11.88085      -10.47207        3.85592
C        -12.16408      -13.24120        2.66318
C        -12.48471      -14.56609        2.36655
C        -13.06580      -15.39309        3.35453
C        -13.32119      -14.90526        4.65048
Cl       -13.46715      -17.04713        3.04209
Cl       -12.09403      -15.15525        0.79180
H          7.56054       -7.76728       -1.89647
H          5.08743       -4.15491        0.55855
H          2.35158       -7.95620       -3.35938
H          2.00329       -4.56197       -4.13719
H          3.77677       -2.46353       -1.68820
H          2.60515       -1.83964       -2.83058
H          3.85379       -3.00023       -3.38577
H          1.09990       -2.29120       -4.19631
H          0.19647       -2.51234       -2.70590
H         -0.30175       -3.80512       -5.40084
H         -1.25653       -2.52511       -4.72744
H         -2.27873       -3.80691       -3.09632
H         -2.48009       -6.44031       -6.22123
H         -1.19999       -6.74827       -5.03798
H         -1.04903       -5.42753       -6.23098
H         -6.28571       -4.09244       -0.37882
H         -5.09711       -3.84554        0.96066
H         -7.67618       -4.95470        2.67154
H         -8.89343       -7.19352        4.05709
H         -6.40357       -9.01398        4.39515
H         -7.23669       -7.12425        7.50855
H         -4.58933      -10.22055        7.78387
H         -6.29262      -10.68490        7.62552
H         -5.65190      -10.03842        9.17042
H         -6.95188       -7.56591        9.88993
H         -7.47324       -9.22970        9.74507
H         -9.15214       -6.76884        9.35551
H         -9.31034       -7.93586       10.61799
H        -10.39730       -9.51425        9.38634
H        -12.07197       -6.31853        7.47071
H        -10.65294       -7.02776        6.68267
H        -10.48155       -5.99623        8.13076
H        -11.38828      -11.37314        7.95875
H        -11.69670      -12.58678        1.93302
H        -13.73700      -15.57810        5.39195
