122

C         -3.76125        2.49341        4.10417
C         -3.63364        2.25573        2.77503
C         -4.75609        2.20762        1.89354
N         -5.68220        2.16604        1.18467
C         -2.36430        1.96927        2.18857
N         -1.32170        1.76114        1.72099
C         -5.03978        2.67427        4.84613
C         -4.81272        2.33075        6.19057
C         -5.77022        2.44050        7.18197
C         -7.00388        2.98010        6.82474
C         -7.25441        3.36746        5.49059
C         -6.27356        3.20583        4.49270
Cl        -8.74569        4.11076        5.02471
Cl        -8.15526        3.21951        8.08997
C         -3.38706        2.05336        6.42347
O         -2.88135        1.67613        7.46005
C         -2.70882        2.43948        5.14795
C         -1.46101        2.93771        5.14142
C         -0.56104        3.10357        6.30499
C          0.38546        2.14358        6.64991
C          0.55111        0.74320        6.24535
O         -0.28101        0.12480        5.60621
N          1.75661        0.31338        6.76583
C          2.31652        1.27289        7.57263
O          3.33697        1.28970        8.23559
C          1.42873        2.42162        7.53007
C          1.56957        3.62171        8.19480
C          0.56129        4.54030        7.96101
C         -0.48511        4.29340        7.05634
C         -1.45377        5.39525        7.06926
O         -2.55034        5.35568        6.53990
S         -0.88064        6.75408        8.02064
C          0.49013        5.84693        8.60624
O          1.29136        6.24094        9.43348
C          2.28548       -0.92854        6.49372
C          3.52169       -1.33110        6.82872
C          4.08201       -2.62470        6.46982
C          5.41344       -2.68131        6.19243
C          5.99651       -3.91763        5.70844
C          7.22915       -4.19285        5.19126
C          8.43449       -3.25691        5.00480
C          9.40808       -3.24062        6.21850
N         10.09233       -4.50894        6.47895
C          9.22302       -3.43720        3.67499
N         10.38934       -2.55586        3.49115
C          7.11037       -5.59637        4.76701
C          7.86839       -6.36437        3.97489
C          7.56616       -7.80860        3.64685
C          6.27279       -8.31359        4.27485
C          5.44534       -7.52917        4.98902
C          5.83154       -6.15837        5.19875
C          5.14167       -5.12994        5.70103
C          3.76518       -5.06271        6.11920
C          3.26661       -3.86030        6.45528
C          8.74007       -8.70162        3.99728
C          9.87992       -8.34128        4.61883
C         10.96655       -9.24438        5.01798
C         12.30351       -8.80868        4.96785
C         12.90993       -7.54504        4.50812
O         12.25275       -6.62195        4.06208
N         14.27835       -7.65748        4.66559
C         14.61115       -8.87587        5.20415
O         15.69640       -9.33839        5.50384
C         13.36248       -9.61024        5.37977
C         13.18220      -10.88955        5.85540
C         11.86410      -11.33040        5.91794
C         10.77108      -10.53804        5.54056
C          9.49937      -11.24688        5.82717
O          8.37506      -10.78887        5.79122
S          9.77873      -12.90804        6.31350
C         11.49398      -12.66039        6.38557
O         12.29985      -13.49331        6.75953
C         15.22725       -6.70232        4.36408
C         14.96800       -5.47830        3.88331
C         15.95980       -4.46533        3.60814
C         16.80447       -3.90399        4.48625
C         17.85790       -2.88203        4.27641
C         17.92661       -1.96422        3.27744
C         18.94302       -0.97453        3.20355
N         19.77672       -0.16999        3.14157
C         16.95430       -1.87107        2.23238
N         16.17195       -1.81003        1.38676
C         18.75440       -2.95733        5.47515
C         18.15586       -3.79809        6.42691
C         16.90147       -4.34876        5.91939
O         16.14144       -5.02672        6.57762
C         18.71397       -4.10343        7.65962
C         19.94755       -3.53959        7.96608
C         20.58499       -2.69743        7.03466
C         19.99222       -2.40982        5.78709
Cl        22.12564       -1.98277        7.36094
Cl        20.64542       -3.93021        9.49597
H         -5.53131        2.17757        8.20790
H         -6.48443        3.56059        3.48725
H         -1.05446        3.36884        4.22804
H          2.39776        3.81145        8.87209
H          1.62557       -1.57876        5.92067
H          4.20899       -0.66139        7.33869
H          6.04793       -1.80443        6.25064
H          8.02501       -2.23768        4.95432
H          8.89131       -2.90949        7.12585
H         10.18343       -2.48306        6.04658
H          9.44814       -5.12333        6.97779
H         10.87581       -4.34513        7.11061
H          8.54462       -3.29810        2.82626
H          9.65404       -4.43040        3.61133
H         11.09436       -2.86386        4.16969
H         10.81659       -2.79712        2.59420
H          8.76455       -6.01052        3.50285
H          7.43088       -7.87174        2.55928
H          5.99560       -9.34948        4.09978
H          4.51530       -7.90606        5.39837
H          3.14172       -5.94904        6.11178
H          2.22050       -3.78386        6.74042
H          8.57990       -9.73585        3.70689
H         10.05155       -7.29328        4.86869
H         14.01673      -11.50991        6.16705
H         16.25377       -7.00146        4.57953
H         13.95515       -5.16425        3.64764
H         15.92308       -4.15755        2.56781
H         18.20314       -4.77486        8.34490
H         20.53829       -1.77467        5.09775
