99

C          3.31843       -9.38305       -3.31917
C          4.57339       -9.61820       -3.78618
C          5.04298       -9.12016       -5.03687
N          5.41541       -8.73015       -6.06276
C          5.51004      -10.44737       -3.09991
N          6.26607      -11.12687       -2.53983
C          2.25957       -8.59223       -4.02954
C          1.02918       -8.85082       -3.41244
C         -0.17759       -8.29408       -3.81071
C         -0.15534       -7.39604       -4.87234
C          1.06497       -7.08431       -5.50051
C          2.27212       -7.68286       -5.08155
Cl         1.15551       -5.93722       -6.79185
Cl        -1.65289       -6.67636       -5.34008
C          1.20244       -9.71862       -2.25026
O          0.29391      -10.10336       -1.54465
C          2.67861       -9.97042       -2.11592
C          3.19402      -10.53066       -1.00666
C          2.45054      -11.06044        0.10091
C          1.43097      -12.14663        0.05584
N          0.90354      -12.50311        1.19243
C          1.51222      -11.67070        2.07408
C          2.44923      -10.80036        1.40983
C          3.08058       -9.89789        2.43077
S          4.15807       -8.66825        2.14526
C          2.45217      -10.37281        3.71656
C          1.50435      -11.42440        3.37651
N          0.86389      -11.89438        4.47475
C          1.39351      -11.18800        5.42909
C          2.43397      -10.20017        5.03983
C          3.13368       -9.32728        5.90171
N          4.11891       -8.47716        5.61012
C          4.43118       -7.71990        6.71523
C          3.61287       -7.93548        7.80691
S          2.61699       -9.24333        7.59695
C          3.61162       -6.78330        8.72266
C          3.86793       -5.69452        7.61653
C          5.08837       -6.30998        6.80592
C          6.41183       -6.40278        7.63144
C          6.94994       -5.08312        8.16285
C          5.28200       -5.63925        5.43270
C          6.44818       -6.19169        4.61018
N          3.80907       -4.33140        8.19971
C          3.03416       -4.43446        9.48311
S          2.20943       -6.06960        9.50622
C          3.42987       -3.26127        7.38802
C          2.42377       -3.34465        6.26824
N          2.04418       -2.23061        5.71507
C          2.73407       -1.30907        6.42529
C          3.57051       -1.93295        7.42899
C          4.23597       -0.85214        8.22641
S          5.35276       -0.98049        9.44914
C          3.63083        0.38764        7.63664
C          2.76403        0.01038        6.54675
N          2.14618        1.09343        6.01230
C          2.62463        2.07315        6.72493
C          3.59380        1.70777        7.79594
C          4.20010        2.58467        8.75008
C          5.00558        3.62131        8.46643
C          5.78542        4.50565        9.36624
C          5.47575        4.86548       10.63925
C          6.23450        5.81576       11.37582
N          6.85817        6.59484       11.96613
C          4.31939        4.36798       11.31354
N          3.38596        3.94979       11.85391
C          6.90070        5.06302        8.53409
C          6.65384        4.74809        7.18955
C          5.44673        3.93002        7.06580
O          4.94858        3.58340        6.01686
C          7.48873        5.10290        6.13976
C          8.65393        5.79810        6.44949
C          8.94928        6.11257        7.79049
C          8.07493        5.74299        8.83372
Cl        10.40026        6.94406        8.23175
Cl         9.70669        6.21381        5.14589
H         -1.09742       -8.53820       -3.28564
H          3.18627       -7.38729       -5.58634
H          4.26716      -10.61200       -0.85777
H          1.16953      -12.60220       -0.91150
H          1.09688      -11.30061        6.48149
H          4.42241       -6.84935        9.45471
H          3.01646       -5.75138        6.91550
H          6.29823       -7.07983        8.48719
H          7.19637       -6.88119        7.03381
H          6.28662       -4.65418        8.91782
H          7.10123       -4.35356        7.36386
H          7.91556       -5.25084        8.65302
H          4.36558       -5.74032        4.83884
H          5.44466       -4.56264        5.56366
H          6.71753       -7.21600        4.88472
H          7.33646       -5.56145        4.73207
H          6.19654       -6.19284        3.54533
H          2.27938       -3.64865        9.59172
H          3.73031       -4.37662       10.32580
H          2.00192       -4.31323        5.97229
H          2.33397        3.12645        6.59282
H          3.99627        2.29202        9.77665
H          7.24494        4.81997        5.11897
H          8.36359        5.98386        9.85223
