112

C         -6.29650       -7.51591       -1.61719
C         -6.96223       -8.24721       -0.68723
C         -8.37974       -8.19672       -0.53419
N         -9.53061       -8.15481       -0.41111
C         -6.31162       -9.08722        0.25690
N         -5.78423       -9.77913        1.03475
C         -6.90996       -6.52291       -2.55876
C         -5.88549       -5.75108       -3.12065
C         -6.08750       -4.71218       -4.01836
C         -7.39515       -4.42752       -4.39179
C         -8.45252       -5.19925       -3.87521
C         -8.21091       -6.24960       -2.96449
Cl       -10.09516       -4.91157       -4.33325
Cl        -7.64478       -3.12745       -5.49884
C         -4.57667       -6.20851       -2.66686
O         -3.54051       -5.66781       -2.98661
C         -4.82289       -7.41601       -1.80224
C         -3.82959       -8.22111       -1.38938
C         -2.41552       -8.04769       -1.63332
C         -1.46902       -7.91242       -0.66283
C         -1.68098       -7.88241        0.81847
C         -0.12087       -7.74176       -1.28066
C         -0.28421       -7.79709       -2.61484
C         -1.68998       -7.99951       -2.89675
C         -2.12468       -8.08188       -4.16105
C         -1.15332       -7.96642       -5.22732
C          0.14201       -7.78274       -4.92531
O          0.62917       -7.68368       -3.63134
C          1.15114       -7.49493       -0.62248
C          1.62618       -8.44454        0.22193
C          2.69814       -8.10788        1.13342
C          3.18914       -8.78733        2.20255
C          3.02412      -10.23310        2.64839
C          1.77966      -10.38149        3.55737
N          1.56947      -11.73869        4.06825
C          3.05753      -11.23132        1.44371
N          2.92664      -12.65219        1.79434
C          3.85389       -7.73855        2.98679
C          4.12014       -7.66996        4.30038
C          4.55652       -6.36043        4.95665
C          4.89452       -5.24185        3.97554
C          4.62095       -5.32079        2.66213
C          3.96430       -6.51236        2.20093
C          3.24392       -6.73262        1.09640
C          2.89934       -5.84803        0.01455
C          1.88895       -6.22133       -0.79381
C          5.68990       -6.59302        5.90721
C          6.86974       -7.12108        5.55538
C          7.92709       -7.33699        6.49635
C          8.46222       -8.54912        6.79498
C          8.03885       -9.88781        6.28302
C          9.55583       -8.38781        7.78469
C          9.61692       -7.08191        8.11111
C          8.62952       -6.37050        7.32646
C          8.49510       -5.04158        7.43159
C          9.35074       -4.34387        8.36974
C         10.25584       -5.03771        9.08148
O         10.43716       -6.40988        8.98128
C         10.41485       -9.40456        8.33754
C         11.22581      -10.20300        7.62595
C         11.94034      -11.41915        8.05242
C         12.50667      -11.64445        9.25807
C         13.27115      -12.81372        9.53668
N         13.88880      -13.77182        9.74428
C         12.43598      -10.70687       10.32901
N         12.37141       -9.94717       11.20641
C         12.06474      -12.27125        6.83069
C         11.75908      -11.48160        5.71047
C         11.35894      -10.13376        6.12904
O         11.17711       -9.20129        5.37670
C         11.74904      -11.95638        4.40759
C         12.04688      -13.30269        4.21117
C         12.33631      -14.13041        5.31501
C         12.34230      -13.61611        6.62703
Cl        12.67148      -15.81675        5.12617
Cl        12.01180      -13.90029        2.59113
H         -5.24208       -4.15436       -4.41333
H         -9.06273       -6.82301       -2.61564
H         -4.02214       -9.11439       -0.80353
H         -2.74343       -7.92711        1.08290
H         -1.28341       -6.96178        1.25706
H         -1.19810       -8.73848        1.30040
H         -3.17059       -8.19225       -4.41287
H         -1.49652       -8.02795       -6.25266
H          0.93882       -7.69403       -5.64855
H          1.08819       -9.37290        0.35948
H          3.90882      -10.48610        3.25297
H          0.88120      -10.06106        3.01959
H          1.88575       -9.73056        4.43148
H          1.52032      -12.36594        3.25146
H          0.65973      -11.80120        4.52037
H          4.00373      -11.10192        0.90370
H          2.25517      -11.02852        0.73467
H          3.49353      -12.85067        2.62088
H          3.29434      -13.22845        1.03803
H          3.92380       -8.51134        4.95616
H          3.70468       -6.00325        5.55253
H          5.34707       -4.33660        4.37164
H          4.84518       -4.51217        1.97681
H          3.42297       -4.90920       -0.11598
H          1.57641       -5.56881       -1.60490
H          5.50563       -6.31975        6.94428
H          7.06349       -7.42086        4.52738
H          7.11226       -9.84010        5.70343
H          7.86627      -10.58267        7.11197
H          8.79532      -10.32069        5.62573
H          7.77779       -4.47872        6.84599
H          9.24026       -3.27147        8.48059
H         10.93516       -4.60621        9.80306
H         10.27999       -9.52659        9.40871
H         11.48701      -11.30003        3.58204
H         12.53766      -14.29666        7.44994
