122

C         -3.55626        0.87124        3.72812
C         -4.10535        2.10766        3.48855
N         -3.46066        3.09666        2.84206
C         -2.21663        2.81637        2.40165
N         -1.59459        1.63213        2.57936
C         -2.28106        0.68823        3.25033
C         -1.48508        3.87834        1.68594
C         -1.74912        5.24072        1.93941
C         -1.02405        6.22907        1.27771
C         -0.04945        5.88109        0.31879
C          0.21346        4.55157        0.03296
C         -0.49657        3.56092        0.72381
C          0.52021        7.08473       -0.24627
C         -0.09120        8.20964        0.34481
C         -1.13031        7.75909        1.39903
C         -0.62892        8.26613        2.78592
C         -1.49257        7.96184        4.00638
C         -2.54141        8.29387        1.04322
C         -3.10723        7.83478       -0.30399
C          0.26272        9.50412       -0.03350
C          1.25096        9.67393       -1.01473
C          1.85987        8.54433       -1.59849
C          1.49618        7.24549       -1.21749
C          1.64956       11.02948       -1.45197
C          2.65964       11.63605       -0.77807
C          3.13490       12.93235       -1.23026
C          4.11943       13.73023       -0.74865
C          4.94250       13.54818        0.51103
C          6.25170       12.76712        0.24368
N          7.16408       13.39438       -0.71373
C          5.20241       14.84156        1.32795
N          3.96952       15.52501        1.73939
C          4.20406       14.83819       -1.70249
C          5.07841       15.84606       -1.82336
C          5.00816       16.87995       -2.92966
C          3.79596       16.71171       -3.83781
C          2.92701       15.68955       -3.73387
C          3.14970       14.70564       -2.70565
C          2.52259       13.55111       -2.42773
C          1.40909       12.89622       -3.07317
C          1.00441       11.70174       -2.59843
C          5.02914       18.26383       -2.31944
C          6.14560       18.97488       -2.09821
C          6.13880       20.27595       -1.41638
C          7.12090       21.23324       -1.71773
C          7.09149       22.44937       -1.05034
C          6.10837       22.71606       -0.06814
C          5.15405       21.77422        0.25628
C          5.17764       20.55490       -0.41366
C          6.31534       24.03737        0.47589
C          7.42184       24.63105       -0.15523
C          8.02381       23.66224       -1.18220
C          7.98850       24.28717       -2.60627
C          6.60335       24.65786       -3.14127
C          9.48911       23.30434       -0.80017
C          9.67862       22.63554        0.56398
C          7.83962       25.91448        0.18453
C          7.15491       26.63070        1.18490
C          6.04771       26.00116        1.80829
C          5.62512       24.71275        1.45914
C          7.57435       27.99252        1.57484
C          8.17710       28.88867        0.70434
N          8.57373       30.14233        1.02656
C          8.34466       30.51074        2.29365
N          7.77333       29.75449        3.23971
C          7.40570       28.51256        2.85005
H         -4.09135        0.09513        4.25634
H         -5.11109        2.34946        3.81969
H         -1.75649       -0.25170        3.39566
H         -2.51756        5.50941        2.65902
H          0.95011        4.26928       -0.71156
H         -0.28647        2.51545        0.49870
H         -0.51030        9.35767        2.75022
H          0.37501        7.86414        2.98203
H         -2.45298        8.48281        3.96359
H         -0.97726        8.30314        4.91194
H         -1.67375        6.89433        4.13725
H         -2.52121        9.39147        1.04089
H         -3.26264        7.99978        1.81475
H         -2.40279        7.98422       -1.12724
H         -4.01184        8.40535       -0.54083
H         -3.38796        6.77709       -0.27723
H         -0.21343       10.36672        0.42190
H          2.62747        8.67404       -2.35933
H          1.97318        6.38815       -1.68100
H          3.15787       11.15815        0.05929
H          4.35540       12.90580        1.18561
H          6.00766       11.76022       -0.11786
H          6.78980       12.63386        1.18938
H          6.70467       13.41497       -1.62742
H          7.98122       12.79710       -0.83589
H          5.83086       15.54911        0.78588
H          5.76642       14.59373        2.23312
H          3.44022       15.78294        0.90434
H          4.21544       16.40422        2.19231
H          5.91828       15.95763       -1.14789
H          5.90028       16.74832       -3.55472
H          3.65042       17.46236       -4.61058
H          2.07515       15.59607       -4.39818
H          0.91441       13.37277       -3.91095
H          0.16318       11.19125       -3.05927
H          4.06157       18.63653       -1.99912
H          7.11878       18.59053       -2.39811
H          7.88952       21.02878       -2.45929
H          4.40270       21.96461        1.01656
H          4.43823       19.80881       -0.13726
H          8.45056       23.59925       -3.32566
H          8.60250       25.19831       -2.61829
H          5.98957       23.76833       -3.31156
H          6.70231       25.17570       -4.10162
H          6.06381       25.32778       -2.46524
H         10.10110       24.21627       -0.81232
H          9.91862       22.63795       -1.55926
H          9.21299       23.20486        1.37367
H         10.74631       22.55483        0.79397
H          9.26614       21.62184        0.57203
H          8.70292       26.33559       -0.32325
H          5.48430       26.51341        2.58668
H          4.77113       24.26539        1.95834
H          8.36480       28.63154       -0.33512
H          8.65044       31.51256        2.57916
H          6.95947       27.92577        3.64784
