108

C          1.04993        1.23595        3.78297
C          1.17287        1.37327        5.12391
C          0.07790        1.64050        5.98677
N         -0.81645        1.87402        6.68482
C          2.43457        1.23179        5.78140
N          3.44232        1.08155        6.33624
N         -0.09736        1.22961        2.99021
C         -1.45876        1.32679        3.48260
C          0.09522        0.99616        1.62669
O         -0.77201        0.90945        0.76962
C          1.54449        0.83307        1.34788
S          2.46918        1.01546        2.78141
C          1.97363        0.55815        0.10843
C          3.39697        0.37944       -0.26744
N          4.42248        0.47135        0.54093
C          5.49040        0.24497       -0.25814
C          5.06591        0.03469       -1.61431
C          6.25907       -0.25364       -2.45089
O          6.32691       -0.46891       -3.63991
C          7.35671       -0.22721       -1.45240
C          6.80505        0.08862       -0.16004
N          7.78338        0.08232        0.78087
C          8.84599       -0.22306        0.08886
C          8.66463       -0.43401       -1.36463
C          3.74202        0.08650       -1.69656
C          2.87192       -0.17766       -2.79313
C          2.92634        0.49325       -3.95155
C          2.07147        0.16940       -5.07791
C          1.25022        1.13753       -5.55195
C          0.38746        0.87053       -6.68690
C         -0.47987        1.65842       -7.38143
C         -0.81052        3.14093       -7.24439
C         -1.97654        3.29238       -6.22073
N         -2.43563        4.66492       -5.97919
C          0.40966        4.04377       -6.88519
N          1.49438        4.02533       -7.87527
C         -1.11808        0.74056       -8.34298
C         -2.03309        0.93000       -9.30862
C         -2.55224       -0.22678      -10.17072
C         -1.95580       -1.58320       -9.84241
C         -1.01550       -1.76036       -8.90127
C         -0.58544       -0.60885       -8.15914
C          0.34354       -0.51283       -7.20323
C          1.24056       -1.51526       -6.68927
C          2.07591       -1.16872       -5.69546
C         -4.06106       -0.23103      -10.15668
C         -4.89550       -0.86720       -9.31027
C         -6.36850       -0.70402       -9.41433
N         -7.20774       -1.65296       -9.06621
C         -8.42626       -1.10385       -9.32050
C         -8.27501        0.21331       -9.88179
C         -9.60888        0.83774      -10.04340
O         -9.91121        1.92249      -10.48418
C        -10.49703       -0.19090       -9.46413
C         -9.71304       -1.33117       -9.06674
N        -10.51333       -2.23496       -8.44280
C        -11.68452       -1.65918       -8.47534
C        -11.77027       -0.33720       -9.13050
C         -6.99609        0.57038       -9.91615
C         -6.44662        1.88680      -10.07019
C         -6.70091        2.68078      -11.12194
C         -6.19455        4.03129      -11.24205
C         -6.77389        5.03541      -11.92113
C         -8.05727        4.99287      -12.67627
O         -8.72336        3.98696      -12.86454
N         -8.36094        6.26490      -13.16209
C         -7.44205        7.27354      -12.88839
C         -7.48818        8.58307      -13.22494
C         -8.55305        9.17505      -13.95919
N         -9.41285        9.65140      -14.55689
C         -6.44192        9.48232      -12.85620
N         -5.60011       10.21966      -12.55486
S         -6.08598        6.62017      -11.97107
C         -9.57860        6.41576      -13.94029
H         -1.60971        2.29878        3.95962
H         -1.64622        0.50760        4.18323
H         -2.18727        1.23797        2.67125
H          1.24554        0.45833       -0.69216
H          9.84974       -0.33837        0.52440
H          9.39401       -0.71119       -2.09760
H          2.14495       -0.97622       -2.65626
H          3.62777        1.31207       -4.10193
H          1.19759        2.08728       -5.04126
H         -1.17815        3.51009       -8.21217
H         -1.68823        2.86547       -5.25328
H         -2.84198        2.71720       -6.57336
H         -2.74743        5.09558       -6.84917
H         -3.25231        4.64287       -5.36723
H          0.82208        3.77517       -5.91463
H          0.09652        5.08525       -6.78035
H          1.72717        3.07445       -8.15029
H          2.34353        4.41663       -7.45397
H         -2.42129        1.91993       -9.52040
H         -2.24629       -0.01351      -11.20484
H         -2.29203       -2.43772      -10.42443
H         -0.60094       -2.73801       -8.68826
H          1.25772       -2.50732       -7.12254
H          2.78585       -1.89509       -5.30896
H         -4.47896        0.35545      -10.96244
H         -4.55041       -1.54684       -8.53660
H        -12.59427       -2.08807       -8.02951
H        -12.60691        0.32607       -9.22094
H         -5.85768        2.24998       -9.23020
H         -7.32997        2.31614      -11.93305
H         -5.25434        4.22400      -10.72555
H        -10.14224        5.47901      -13.99820
H         -9.31746        6.70516      -14.96274
H        -10.23145        7.15550      -13.47044
