80

C          8.77625       -1.48184        3.66290
N          7.36357       -1.51024        3.36967
N          6.49925       -0.79624        4.09485
C          5.36478       -0.85591        3.36746
C          4.10854       -0.21779        3.56005
C          3.80841        0.66316        4.70150
C          4.63789        1.45990        5.39732
C          4.25485        1.86684        6.78703
O          3.14023        2.00845        7.24892
C          5.53721        1.95817        7.52129
C          5.70405        2.10427        8.88629
C          6.99974        1.99267        9.37284
F          7.22177        2.12797       10.68604
C          8.08174        1.71326        8.52641
C          7.89465        1.59077        7.14468
C          6.61577        1.75902        6.63622
C          6.06465        1.75548        5.26151
C          6.70202        2.15960        4.13759
C          5.99138        2.40879        2.92546
N          5.41614        2.63584        1.94519
C          8.10629        2.36639        4.09153
N          9.26232        2.47552        4.05270
C          3.13556       -0.56456        2.59875
C          3.38793       -1.44786        1.51046
C          4.63228       -2.07960        1.28328
C          4.92319       -2.99645        0.19117
C          5.79291       -4.00612        0.18487
C          5.72190       -4.66959       -1.11139
O          6.44196       -5.62340       -1.35601
N          4.77263       -4.03322       -1.86017
C          4.37506       -4.42632       -3.17088
C          4.93940       -5.54739       -3.84339
C          4.55120       -6.01428       -5.13084
C          3.54639       -5.40636       -5.89762
C          3.14845       -5.91037       -7.21436
C          1.94893       -5.85440       -7.81430
C          1.92422       -6.02135       -9.30281
O          2.70918       -6.62089      -10.00304
C          0.78196       -5.20661       -9.75764
C          0.48859       -4.87702      -11.06803
C         -0.55088       -3.98139      -11.26720
F         -0.87683       -3.62035      -12.51435
C         -1.25250       -3.42247      -10.19073
C         -0.94218       -3.77770       -8.87100
C          0.06767       -4.70364       -8.65240
C          0.63831       -5.32017       -7.42618
C         -0.00991       -5.51809       -6.25290
C          0.52215       -6.35524       -5.22580
N          0.93548       -7.04399       -4.38840
C         -1.27008       -4.92637       -5.96461
N         -2.28354       -4.40955       -5.72207
C          2.99441       -4.24582       -5.30630
N          2.06911       -3.39065       -5.79271
N          1.89736       -2.53998       -4.78045
C          0.90020       -1.49886       -4.83374
N          2.57692       -2.74943       -3.66510
C          3.37362       -3.78946       -3.95192
C          4.31325       -2.94883       -1.15378
O          3.59802       -2.01070       -1.45660
C          5.62552       -1.75182        2.22900
N          6.91646       -2.13203        2.28112
H          8.94118       -0.93976        4.59754
H          9.28123       -0.96695        2.84077
H          9.13221       -2.50975        3.75341
H          2.78287        0.56117        5.06208
H          4.86580        2.27385        9.55090
H          9.07279        1.59031        8.95729
H          8.74639        1.34718        6.51784
H          2.13491       -0.13519        2.67339
H          2.56239       -1.63644        0.81956
H          6.44853       -4.34287        0.96893
H          5.72359       -6.13658       -3.36911
H          5.05679       -6.90100       -5.51821
H          3.98833       -6.31123       -7.78625
H          1.05751       -5.27557      -11.89902
H         -2.04049       -2.70046      -10.39167
H         -1.48690       -3.29917       -8.06357
H          0.50917       -1.42291       -5.85115
H          1.36811       -0.55636       -4.53970
H          0.09623       -1.76191       -4.14115
