130

C          5.48877        0.28684       -1.88932
C          5.29555        1.50959       -2.43119
C          6.31289        2.50114       -2.43060
N          7.13969        3.31359       -2.39082
C          4.01739        1.89912       -2.93906
N          2.96683        2.17906       -3.33784
C          6.68862       -0.23543       -1.20495
C          6.26184       -1.17172       -0.24398
C          7.13901       -1.93118        0.50954
C          8.50355       -1.83766        0.20131
C          8.93485       -1.00089       -0.85726
C          8.03278       -0.14824       -1.52657
C         10.30105       -1.08506       -1.43034
O         10.92399       -0.12584       -1.84581
O         10.62250       -2.39304       -1.56133
C         11.84386       -2.66786       -2.25223
C          9.41779       -2.65332        0.94559
N         10.13580       -3.31771        1.57237
C          4.81112       -1.43597       -0.40853
O          4.11823       -2.17373        0.25583
C          4.46315       -0.73716       -1.68657
C          3.68839       -1.38499       -2.57081
C          3.87769       -1.14975       -4.02559
N          5.00480       -0.73180       -4.54972
C          4.74101       -0.69637       -5.87871
C          3.38923       -1.12311       -6.13279
C          3.14821       -1.05026       -7.60385
O          2.15315       -1.28758       -8.25338
C          4.45188       -0.59862       -8.11745
C          5.35537       -0.40390       -7.01782
N          6.56229        0.00845       -7.48374
C          6.37884        0.04822       -8.77441
C          5.03522       -0.32738       -9.27961
C          2.78361       -1.46162       -4.99492
C          1.47168       -1.94557       -4.71359
C          0.56696       -2.22942       -5.65641
C         -0.79014       -2.59784       -5.35314
C         -1.72548       -1.66101       -5.62895
C         -3.08999       -1.87305       -5.22142
C         -4.16563       -1.04128       -5.21605
C         -4.34963        0.38265       -5.74355
C         -3.94393        1.41209       -4.65484
N         -4.23719        2.80532       -5.02059
C         -3.60473        0.64132       -7.09473
N         -3.80462        1.96638       -7.70585
C         -5.18076       -1.80533       -4.47096
C         -6.30772       -1.41528       -3.85503
C         -7.10066       -2.36046       -2.93812
C         -6.62090       -3.81014       -2.98306
C         -5.48017       -4.18551       -3.58032
C         -4.70451       -3.16222       -4.21700
C         -3.42707       -3.17496       -4.60396
C         -2.41728       -4.18529       -4.40503
C         -1.15027       -3.87934       -4.73436
C         -8.58488       -2.30851       -3.17961
C         -9.27932       -1.22392       -3.55905
C        -10.72555       -1.37029       -3.76691
N        -11.49176       -2.21907       -3.12786
C        -12.69913       -2.03485       -3.71202
C        -12.61698       -1.01767       -4.72792
C        -13.93934       -0.88618       -5.37804
O        -14.27466       -0.15534       -6.28870
C        -14.74881       -1.90217       -4.66533
C        -13.92441       -2.54500       -3.67428
N        -14.63287       -3.50660       -3.02854
C        -15.80286       -3.43335       -3.60113
C        -15.96843       -2.42375       -4.66957
C        -11.38849       -0.51827       -4.80225
C        -10.82985        0.45703       -5.68477
C        -10.33621        1.63466       -5.27212
C         -9.82951        2.64146       -6.19078
C         -9.74029        3.96450       -5.96341
C         -9.26775        5.08280       -6.83310
C         -8.58566        4.99585       -8.00548
C         -8.13949        6.13484       -8.73688
N         -7.77759        7.05863       -9.34013
C         -8.22395        3.75853       -8.61358
N         -7.92274        2.76192       -9.12665
C         -9.61638        6.35827       -6.11591
C        -10.17379        6.03576       -4.87542
C        -10.27269        4.58847       -4.70115
O        -10.73109        4.06480       -3.70737
C        -10.58380        6.97341       -3.93537
C        -10.42316        8.32960       -4.23180
C         -9.87914        8.70077       -5.47832
C         -9.49555        7.71056       -6.42361
C         -9.70949       10.13845       -5.82379
O        -10.42273       11.02942       -5.40301
O         -8.63581       10.27664       -6.63635
C         -8.33270       11.61753       -7.03283
C        -10.78393        9.27740       -3.21454
N        -11.06784        9.97715       -2.33386
H          6.76495       -2.64459        1.24074
H          8.37831        0.45915       -2.36213
H         11.79501       -3.69950       -2.61384
H         12.68646       -2.58017       -1.56111
H         11.97956       -2.01115       -3.11682
H          3.09512       -2.24415       -2.27357
H          7.15182        0.33660       -9.50294
H          4.67127       -0.36773      -10.28152
H          1.18698       -2.05014       -3.66605
H          0.75676       -2.10808       -6.71476
H         -1.42374       -0.72428       -6.07033
H         -5.41945        0.51795       -5.95944
H         -2.87021        1.32414       -4.44993
H         -4.47232        1.20435       -3.71851
H         -3.90858        2.93048       -5.99228
H         -3.65158        3.42483       -4.46168
H         -3.88727       -0.12288       -7.82765
H         -2.52859        0.57759       -6.95025
H         -4.76877        2.04183       -8.03264
H         -3.22291        2.02517       -8.54469
H         -6.60932       -0.37594       -3.90683
H         -6.93928       -2.02740       -1.90353
H         -7.21159       -4.56360       -2.46710
H         -5.14199       -5.21489       -3.58025
H         -2.66785       -5.12977       -3.93873
H         -0.34995       -4.58854       -4.54661
H         -9.13545       -3.22741       -2.97787
H         -8.82163       -0.26497       -3.74620
H        -16.65538       -4.07724       -3.33857
H        -16.82908       -2.21784       -5.27247
H        -10.89397        0.22411       -6.74552
H        -10.32935        1.86251       -4.20749
H         -9.52554        2.21622       -7.14139
H        -11.00473        6.64355       -2.98638
H         -9.11238        8.04918       -7.38051
H         -7.63976       12.05522       -6.30915
H         -9.22738       12.24034       -7.13010
H         -7.84022       11.57535       -8.00837
