132

C         -0.36040        2.95534       -0.85508
C          0.14846        2.42494       -1.99060
C          0.25677        3.15064       -3.21109
N          0.35499        3.76684       -4.18905
C          0.39754        1.02149       -2.07170
N          0.51262       -0.12767       -2.09508
C         -1.55507        3.79740       -1.01168
C         -2.59115        3.16587       -0.32538
C         -3.90811        3.43423       -0.60316
C         -4.22794        4.44034       -1.55797
C         -3.17417        5.21294       -2.12102
C         -1.83473        4.88487       -1.84476
C         -3.29203        6.39815       -3.02779
O         -2.51980        6.60198       -3.95011
O         -4.18238        7.26392       -2.51536
C         -4.23459        8.56329       -3.11856
C         -5.67927        4.55222       -1.83513
O         -6.51224        3.86343       -1.26508
O         -5.98234        5.53730       -2.70084
C         -6.96581        6.42052       -2.15908
C         -1.99780        2.14588        0.62337
O         -2.62389        1.46774        1.40643
C         -0.51298        2.21287        0.41674
C          0.40637        1.80309        1.32239
C          1.83197        2.06053        1.31226
C          2.70490        2.32762        0.14351
N          3.90363        2.76170        0.33830
C          3.97442        2.76266        1.69277
C          2.76048        2.20508        2.26602
C          2.99142        2.13623        3.74900
S          2.39827        1.00143        4.81126
C          4.15901        3.05880        3.93205
C          4.77149        3.24974        2.63556
N          5.89497        4.00527        2.73035
C          5.89344        4.35308        3.98707
C          4.75093        3.86936        4.81238
C          4.39011        4.34393        6.12564
C          4.31645        5.68997        6.32654
C          3.91487        6.25524        7.61024
C          3.84276        7.53606        8.09077
C          4.31885        8.88426        7.51158
C          5.02639        8.84463        6.11809
N          6.26472        8.06451        6.04269
C          3.18529        9.95610        7.41084
N          3.62627       11.27511        6.92096
C          3.24223        7.36851        9.44477
C          2.86350        8.24124       10.39769
C          2.26561        7.80305       11.75041
C          2.09385        6.30225       11.88802
C          2.48205        5.43250       10.94912
C          3.04637        5.94772        9.72781
C          3.47925        5.29007        8.64763
C          3.60001        3.87069        8.42482
C          4.05548        3.43874        7.23404
C          3.11802        8.34884       12.86591
C          2.88621        8.32896       14.19280
C          3.66667        9.08769       15.12840
C          3.83658        8.80242       16.57917
N          4.32607        9.76275       17.31465
C          4.51238       10.76470       16.41428
C          4.19243       10.31571       15.07127
C          4.40991       11.46531       14.12724
S          4.61431       11.51413       12.47930
C          4.58056       12.60349       15.07130
C          4.73491       12.07628       16.40978
N          4.92261       13.09781       17.28860
C          4.82435       14.15436       16.53210
C          4.57192       13.93242       15.07908
C          4.26872       14.92721       14.08414
C          5.01566       16.00255       13.79547
C          6.31920       16.37996       14.31895
C          7.46519       15.66440       14.18587
C          8.74812       16.21773       14.47299
N          9.76851       16.71523       14.70505
C          7.48927       14.42877       13.47763
N          7.54130       13.47075       12.82867
C          6.34418       17.85062       14.33058
C          5.50349       18.29706       13.31363
C          4.57628       17.18204       12.94716
O          3.63888       17.23064       12.18388
C          5.66761       19.56665       12.77868
C          6.63938       20.43743       13.35471
C          7.27464       20.05866       14.56591
C          7.12961       18.73461       15.02936
C          8.25614       20.84166       15.37647
O          9.27305       21.37237       14.97662
O          7.96043       20.58920       16.68420
C          9.12020       20.41839       17.50459
C          7.03664       21.60354       12.50483
O          6.64943       21.74489       11.35589
O          7.97681       22.34495       13.10753
C          8.98478       22.90574       12.25954
H         -4.68800        2.84191       -0.12720
H         -1.02787        5.44592       -2.30197
H         -3.25580        8.89418       -3.47590
H         -4.56429        9.24895       -2.33371
H         -4.97070        8.58836       -3.92872
H         -6.48536        7.02935       -1.38384
H         -7.82170        5.89461       -1.72813
H         -7.30820        7.08752       -2.95257
H          0.01689        1.36413        2.25065
H          2.34765        2.13529       -0.87657
H          6.68715        4.94977        4.45962
H          4.49642        6.37051        5.50781
H          5.06060        9.27442        8.22681
H          5.31235        9.85265        5.80258
H          4.31513        8.49553        5.36109
H          6.96947        8.48820        6.64547
H          6.63193        8.13518        5.09283
H          2.72317       10.12752        8.38346
H          2.39356        9.59553        6.74545
H          4.63375       11.39122        7.02742
H          3.21584       12.01264        7.49500
H          2.97847        9.30834       10.26089
H          1.26817        8.26147       11.81471
H          1.62024        5.93014       12.79336
H          2.34822        4.36439       11.07934
H          3.37009        3.17369        9.22089
H          4.18539        2.37211        7.07102
H          4.01215        8.85458       12.52212
H          2.02695        7.79179       14.59388
H          3.55307        7.81311       16.97308
H          4.91859       15.18263       16.91132
H          3.29707       14.81934       13.59817
H          5.12431       19.84663       11.87632
H          7.70003       18.38330       15.88658
H          9.92298       21.11746       17.25837
H          9.47516       19.38835       17.38031
H          8.83146       20.55498       18.54874
H          8.55559       23.50284       11.45247
H          9.61362       22.10270       11.85638
H          9.62188       23.54442       12.87897
