144

C         -8.47243        7.24486        5.52877
C         -9.47092        6.67383        4.81374
C        -10.83748        6.88563        5.12601
N        -11.96250        7.05159        5.40854
C         -9.22693        5.97642        3.60240
N         -9.10308        5.46223        2.56351
C         -8.68024        8.35684        6.47949
C         -7.63417        9.27346        6.30141
C         -7.58348       10.47646        6.99195
C         -8.53269       10.69737        8.01057
C         -9.53739        9.71823        8.26567
C         -9.62790        8.56881        7.46612
C        -10.40653        9.88171        9.35352
C        -10.28086       10.97611       10.20684
C         -9.32079       11.94978        9.94909
C         -8.46985       11.82593        8.84558
C         -6.57305        8.65142        5.45602
O         -5.51737        9.15232        5.13325
C         -7.04457        7.22494        5.22280
C         -6.15214        6.21529        5.15310
C         -6.32327        4.78345        5.51982
C         -5.49314        3.78363        4.94884
N         -4.96374        3.57517        3.66519
C         -5.87830        3.48741        2.51927
C         -6.11661        4.76771        1.75445
C         -3.87631        2.69940        3.76651
C         -4.09209        1.98842        4.95341
C         -5.20497        2.58564        5.61612
C         -5.90685        2.25495        6.78717
C         -6.84792        3.15068        7.28494
C         -7.00853        4.40743        6.69568
C         -3.24081        0.91407        5.29222
C         -2.14046        0.62391        4.48771
C         -1.92406        1.34558        3.31889
C         -2.81091        2.35998        2.90389
C         -2.58726        3.05411        1.62356
C         -3.04410        2.44715        0.49870
C         -2.66943        2.98144       -0.79858
C         -3.02844        2.60597       -2.05241
C         -4.11090        1.62989       -2.44956
C         -5.45169        2.40481       -2.64764
N         -5.43364        3.48477       -3.64008
C         -3.79576        0.68453       -3.63485
N         -2.62541       -0.17589       -3.41746
C         -2.23366        3.45647       -2.94273
C         -2.03348        3.43314       -4.27005
C         -1.06842        4.37006       -4.96894
C         -0.60835        5.52379       -4.08915
C         -0.80177        5.55018       -2.75574
C         -1.52505        4.45887       -2.15042
C         -1.77168        4.15735       -0.86537
C         -1.36954        4.80944        0.35743
C         -1.76353        4.27611        1.53216
C         -1.62565        4.78636       -6.31150
C         -2.38316        5.86147       -6.59231
C         -2.86042        6.09260       -7.95533
C         -2.10922        6.88584       -8.84750
N         -1.10691        7.83818       -8.68674
C         -1.06707        8.78598       -7.57463
C         -2.25560        9.74420       -7.50267
C         -0.42236        8.01661       -9.89022
C         -1.31515        7.55478      -10.87156
C         -2.37239        6.85821      -10.21877
C         -3.49327        6.15305      -10.70401
C         -4.31826        5.47239       -9.81123
C         -3.98744        5.41819       -8.45980
C         -1.02873        7.75471      -12.23567
C          0.10703        8.46228      -12.59413
C          0.99105        8.89287      -11.61425
C          0.83108        8.57864      -10.25482
C          1.92142        8.75857       -9.27151
C          3.24874        8.57847       -9.44472
C          4.31552        8.58999       -8.39984
C          4.39652        9.38596       -7.30599
C          5.52359        9.39599       -6.43579
N          6.44107        9.39546       -5.71897
C          3.38965       10.34871       -6.98550
N          2.57240       11.12474       -6.71660
C          5.41290        7.71539       -8.90910
C          5.18258        7.47566      -10.26410
C          3.92291        8.06842      -10.69425
O          3.60706        8.11559      -11.86185
C          6.01309        6.73666      -11.08628
C          7.14527        6.16608      -10.51679
C          7.40698        6.35370       -9.12906
C          6.52914        7.12637       -8.33409
C          8.54754        5.75511       -8.58073
C          9.40754        4.99220       -9.37246
C          9.14337        4.81225      -10.72792
C          8.01619        5.39728      -11.29925
H         -6.78159       11.18485        6.80263
H        -10.39451        7.82783        7.67455
H        -11.16723        9.13426        9.57218
H        -10.92617       11.06017       11.07820
H         -9.21974       12.79759       10.62291
H         -7.72554       12.60120        8.67467
H         -5.09748        6.48535        5.04290
H         -6.83024        3.10526        2.91304
H         -5.51265        2.71066        1.84027
H         -6.34909        5.60281        2.41649
H         -6.96491        4.62245        1.07495
H         -5.25158        5.04171        1.14773
H         -5.70628        1.31807        7.30019
H         -7.39370        2.89336        8.18983
H         -7.64171        5.11813        7.21926
H         -3.40836        0.35016        6.20596
H         -1.45000       -0.16293        4.78242
H         -1.05320        1.10599        2.71025
H         -3.61249        1.52418        0.53975
H         -4.29517        0.96214       -1.59489
H         -5.75035        2.84360       -1.68598
H         -6.24557        1.70359       -2.92574
H         -4.75644        4.19170       -3.33946
H         -6.33183        3.96910       -3.62422
H         -3.66730        1.23016       -4.56763
H         -4.65468        0.02898       -3.81126
H         -1.79251        0.40097       -3.29067
H         -2.45800       -0.72329       -4.26184
H         -2.51636        2.71795       -4.91641
H         -0.16341        3.78263       -5.18508
H         -0.05592        6.32535       -4.56809
H         -0.44651        6.36887       -2.14296
H         -0.77016        5.71018        0.31540
H         -1.46810        4.74298        2.46784
H         -1.38651        4.08831       -7.11856
H         -2.69032        6.56090       -5.82482
H         -0.19322        9.42082       -7.69515
H         -0.94084        8.22930       -6.64351
H         -2.52920       10.13539       -8.48875
H         -1.99874       10.60213       -6.86846
H         -3.13654        9.26631       -7.06490
H         -3.70319        6.13117      -11.76999
H         -5.19237        4.94574      -10.18653
H         -4.61129        4.82542       -7.79290
H         -1.69213        7.36589      -13.00195
H          0.33637        8.63834      -13.64131
H          1.86548        9.44205      -11.95123
H          1.58079        8.95219       -8.26619
H          5.76152        6.60326      -12.13559
H          6.74749        7.22531       -7.27486
H          8.78047        5.88065       -7.52449
H         10.28957        4.53700       -8.93029
H          9.81344        4.21778      -11.34156
H          7.82404        5.24691      -12.35983
