128

C          3.92345        9.99057       -7.58793
C          4.87059        9.28837       -6.92417
C          5.80716        9.92327       -6.07144
N          6.56104       10.46303       -5.35568
C          5.03977        7.88590       -7.13328
N          5.23342        6.75605       -7.32649
C          3.74132       11.45705       -7.65894
C          3.11801       11.75239       -8.88576
C          2.70419       13.02475       -9.23393
C          2.81568       14.03145       -8.26671
C          3.37993       13.73845       -6.98794
C          3.87848       12.45177       -6.70454
C          3.37073       14.73191       -5.99844
C          2.81792       15.98812       -6.25285
C          2.29481       16.28024       -7.50940
C          2.30206       15.31171       -8.51365
C          2.71282       10.49725       -9.56708
O          2.19105       10.37701      -10.65381
C          2.94025        9.44723       -8.52503
C          1.90315        8.62831       -8.26044
N          1.50488        8.06739       -7.04046
C          0.30015        7.18392       -6.94224
C          0.55863        5.74970       -7.37779
S          1.04210        4.79594       -5.90827
C          0.73135        6.13063       -4.72627
C         -0.14214        7.15557       -5.45795
N          0.11596        8.50103       -4.95513
S          1.40643        9.18689       -5.75239
C         -0.31659        9.04564       -3.77480
C         -1.42111        8.78544       -3.05642
C         -1.70548        9.44254       -1.78290
C         -1.29255       10.72516       -1.58161
C         -1.20671       11.21853       -0.22695
C         -0.59802       12.32962        0.25940
C         -0.28951       13.68869       -0.35111
C          1.09281       13.73888       -1.04266
N          1.42292       15.04778       -1.61943
C         -1.46287       14.17235       -1.26945
N         -1.25970       15.48879       -1.89410
C         -0.22881       11.90491        1.61119
C          0.86859       12.19645        2.32550
C          1.22384       11.41565        3.58610
C          0.15253       10.41985        4.03983
C         -0.92064       10.11013        3.29333
C         -0.99111       10.72267        1.99960
C         -1.56295       10.29630        0.87099
C         -2.35983        9.13320        0.59045
C         -2.43027        8.73700       -0.69556
C          1.57779       12.39283        4.67001
C          0.69705       12.91602        5.53355
N          0.96870       13.77516        6.57981
C          0.97485       15.26079        6.44484
C          1.17562       15.86481        5.06338
S         -0.47016       16.14045        4.34080
C         -1.38685       15.75049        5.85929
C         -0.36866       15.78746        7.00154
N         -0.72467       14.89343        8.11224
S          0.06523       13.42282        7.98021
C         -1.82954       14.98146        8.92692
C         -2.81224       15.89091        8.90253
C         -3.93110       15.86036        9.81837
C         -4.95804       16.72441        9.85044
C         -6.08304       16.81194       10.81163
C         -6.62806       15.80135       11.53315
C         -7.77435       15.98251       12.36048
N         -8.69725       16.12139       13.04569
C         -6.14841       14.45432       11.48449
N         -5.76351       13.35994       11.45134
C         -6.61986       18.20486       10.69582
C         -6.04620       18.81438        9.57423
C         -5.05063       17.93464        8.95907
O         -4.43712       18.19513        7.94463
C         -6.34387       20.10193        9.15034
C         -7.25907       20.84581        9.90019
C         -7.83363       20.27619       11.06937
C         -7.50172       18.95876       11.46036
C         -8.73255       21.04612       11.82256
C         -9.06717       22.34464       11.43188
C         -8.50682       22.89492       10.28312
C         -7.60486       22.15160        9.52181
H          2.20860       13.19528      -10.18520
H          4.26665       12.23220       -5.71341
H          3.76441       14.52706       -5.00475
H          2.78678       16.73669       -5.46468
H          1.86217       17.25865       -7.70337
H          1.86908       15.55733       -9.48139
H          1.14873        8.47637       -9.03464
H         -0.50537        7.62543       -7.54664
H          1.32135        5.67116       -8.15684
H         -0.36712        5.30387       -7.75535
H          1.69617        6.54194       -4.40820
H          0.23124        5.74954       -3.83044
H         -1.20340        6.88735       -5.38228
H          0.37934        9.80245       -3.41166
H         -2.12170        8.02212       -3.37673
H         -0.76431       11.28445       -2.34456
H         -0.26564       14.40758        0.48348
H          1.14084       12.98622       -1.83479
H          1.87653       13.50925       -0.31534
H          0.63291       15.31167       -2.23198
H          2.23273       14.97323       -2.22758
H         -2.38449       14.22548       -0.67601
H         -1.63985       13.46104       -2.08015
H         -0.99169       16.16087       -1.16978
H         -2.13091       15.82424       -2.30056
H          1.59325       12.91804        1.96450
H          2.11737       10.81180        3.36778
H          0.28886        9.94239        5.00695
H         -1.66928        9.39828        3.61805
H         -2.88689        8.62728        1.39008
H         -3.02386        7.86749       -0.96013
H          2.62716       12.66422        4.72612
H         -0.35164       12.61882        5.46630
H          1.79632       15.60628        7.08771
H          1.81083       15.27280        4.40133
H          1.64044       16.85297        5.16413
H         -1.86874       14.77413        5.74797
H         -2.17786       16.49239        6.00630
H         -0.24218       16.81630        7.36453
H         -1.86453       14.18742        9.67295
H         -2.78091       16.67825        8.15993
H         -3.86098       15.05939       10.54893
H         -5.85917       20.51125        8.26893
H         -7.94278       18.57107       12.37288
H         -9.18748       20.64039       12.72429
H         -9.76848       22.92586       12.02593
H         -8.77082       23.90496        9.97905
H         -7.17578       22.60233        8.62906
