109

C         -3.55197        5.74597       -2.76839
C         -3.25164        4.78858       -3.67540
C         -3.13223        5.07888       -5.06466
N         -3.06906        5.31845       -6.19702
C         -3.18429        3.41489       -3.29764
N         -3.16532        2.30394       -2.94979
C         -3.86416        7.16469       -3.02817
C         -4.78040        7.59295       -2.05297
C         -5.23483        8.89606       -1.97171
C         -4.65980        9.84019       -2.83357
C         -3.66214        9.43891       -3.77316
C         -3.29772        8.08569       -3.89217
C         -3.00816       10.41833       -4.53306
C         -3.32877       11.76795       -4.38339
C         -4.33052       12.15413       -3.49718
C         -4.99793       11.19632       -2.73250
C         -4.94902        6.53930       -1.02332
O         -5.67668        6.55879       -0.05434
C         -3.90536        5.51999       -1.36707
C         -3.24923        4.91806       -0.36451
C         -1.84998        4.46533       -0.54007
N         -0.98780        5.01895       -1.36077
C          0.16915        4.36188       -1.08562
C         -0.04662        3.36922       -0.06720
C          1.22605        2.65325        0.19646
O          1.45281        1.74467        0.96049
C          2.16760        3.35780       -0.70542
C          1.45050        4.37235       -1.43720
N          2.30036        5.04430       -2.25410
C          3.44464        4.46070       -2.02190
C          3.44992        3.35236       -1.04237
C         -1.30618        3.39256        0.34162
C         -1.99671        2.60497        1.30090
C         -1.67893        2.57409        2.60184
C         -2.34919        1.74761        3.55406
S         -1.43346        1.24242        4.92514
C         -2.69119        0.29725        5.57332
C         -3.82995        0.39355        4.78492
C         -3.64336        1.24398        3.62685
C         -4.78545        1.49496        2.67522
C         -5.83521        0.38664        2.72067
C         -6.27740        0.12106        4.15738
C         -7.39531       -0.89591        4.15762
O         -7.23111       -2.11086        4.18447
C         -5.11417       -0.36213        5.02679
C         -2.48129       -0.55832        6.73361
N         -3.23011       -1.63188        6.89379
C         -2.72122       -2.23703        7.99150
C         -1.63004       -1.47367        8.52382
C         -1.10390       -2.16366        9.72921
O         -0.19990       -1.83976       10.46709
C         -1.96329       -3.36825        9.80235
C         -2.91577       -3.32891        8.72155
N         -3.71572       -4.42522        8.76544
C         -3.25856       -5.07509        9.79949
C         -2.12979       -4.46218       10.53324
C         -1.43214       -0.37702        7.80270
C         -0.51976        0.69704        8.02512
C          0.81056        0.52892        8.06116
C          1.71134        1.64121        8.26517
C          2.96686        1.74630        7.80458
C          3.94550        2.84178        7.99120
C          3.67453        4.15854        8.18359
C          4.68838        5.15831        8.20724
N          5.51280        5.97511        8.22523
C          2.34629        4.66826        8.28058
N          1.26486        5.08576        8.34985
C          5.27781        2.27672        7.65204
C          5.08907        1.05914        6.98768
C          3.67448        0.66709        7.02757
O          3.22318       -0.34836        6.54204
C          6.12068        0.32491        6.42581
C          7.42557        0.80468        6.56926
C          7.66180        1.99068        7.32127
C          6.58174        2.71616        7.86189
C          8.98054        2.42612        7.50651
C         10.04896        1.73161        6.93755
C          9.81385        0.59212        6.17339
C          8.51063        0.12663        5.99488
H         -5.93618        9.18341       -1.19374
H         -2.51571        7.79322       -4.58844
H         -2.21515       10.14300       -5.22616
H         -2.78861       12.51901       -4.95449
H         -4.57995       13.20634       -3.38571
H         -5.76314       11.52520       -2.03233
H         -3.62280        4.95870        0.65516
H          4.39061        4.74875       -2.50416
H          4.27036        2.74684       -0.71370
H         -2.78250        2.00096        0.87077
H         -0.83300        3.16254        2.95646
H         -4.46008        1.55366        1.64007
H         -5.24295        2.46066        2.92323
H         -5.41815       -0.53035        2.28071
H         -6.68888        0.66905        2.09291
H         -6.68406        1.04631        4.58603
H         -8.41137       -0.47701        4.06603
H         -4.91151       -1.42251        4.83246
H         -5.40836       -0.27212        6.07986
H         -3.66034       -6.03838       10.14639
H         -1.61242       -4.82813       11.39691
H         -0.95784        1.68824        8.12430
H          1.24050       -0.46060        7.91074
H          1.27628        2.43113        8.87136
H          5.90201       -0.59919        5.89653
H          6.79327        3.61089        8.43989
H          9.19111        3.31811        8.09396
H         11.06615        2.08585        7.08656
H         10.64664        0.06123        5.71928
H          8.35013       -0.77000        5.39925
