120

C          4.84386        6.44674        3.21203
C          4.05537        5.49272        2.66850
C          3.64482        4.34573        3.40585
N          3.29463        3.43864        4.03512
C          3.68429        5.52593        1.29141
N          3.42085        5.51080        0.16116
C          5.60859        6.33819        4.46878
C          6.83332        6.99956        4.26950
C          7.83176        7.02850        5.22170
C          7.55636        6.45170        6.46761
C          6.27316        5.88100        6.72768
C          5.30711        5.80687        5.70901
C          5.98382        5.41224        8.01580
C          6.94468        5.47038        9.02539
C          8.21255        5.97905        8.75604
C          8.51720        6.46798        7.48555
C          6.79318        7.77177        3.00570
O          7.67518        8.45131        2.52898
C          5.37793        7.62409        2.53619
C          4.76991        8.67634        1.96936
C          3.35314        8.84750        1.92993
S          2.67474        9.80492        0.68167
C          1.07393        9.62986        1.27083
C          1.05058        8.84877        2.40672
C          2.35540        8.42449        2.79528
C         -0.04712       10.26725        0.62759
C         -1.20011       10.74373        1.21976
C         -2.09745       11.32176        0.27218
C         -1.61840       11.26224       -1.02399
S         -0.08401       10.51173       -1.06440
C         -2.24898       11.72897       -2.23523
S         -3.79470       12.46097       -2.20011
C         -3.82907       12.68446       -3.89647
C         -2.67237       12.21156       -4.48201
C         -1.76887       11.66157       -3.53086
C         -4.98076       13.27708       -4.46665
C         -4.91232       13.97738       -5.60533
C         -6.08251       14.54510       -6.15317
N         -5.93649       15.25566       -7.32070
C         -7.16717       15.70973       -7.68386
C         -7.81943       16.45864       -8.68043
C         -9.15032       16.46625       -8.29839
N         -9.30325       15.75492       -7.13230
C         -8.07280       15.29753       -6.76705
C         -7.41556       14.54852       -5.77121
C        -10.31069       17.03650       -8.85633
C        -10.22669       17.73757       -9.99348
C        -11.38186       18.30961      -10.57215
S        -11.21825       19.72598      -11.51029
C        -12.89399       19.79705      -11.85035
C        -13.56654       18.74589      -11.25969
C        -12.69846       17.89706      -10.52045
C        -13.45326       20.83553      -12.67426
C        -14.55854       20.74354      -13.49582
C        -14.84620       21.97480      -14.15619
C        -13.95541       22.97692      -13.82215
S        -12.78008       22.40849      -12.72235
C        -13.94436       24.34674      -14.26576
S        -15.39811       25.15812      -14.66324
C        -14.57906       26.61377      -15.03706
C        -13.21806       26.48724      -14.85158
C        -12.85313       25.18455      -14.40558
C        -15.32549       27.74017      -15.45714
C        -15.56169       27.93318      -16.76211
C        -16.32530       29.06362      -17.24446
C        -16.20667       29.64136      -18.45046
C        -16.89071       30.84047      -18.98916
C        -18.12355       31.29808      -18.65678
C        -18.73639       32.40366      -19.30426
N        -19.23898       33.30908      -19.82741
C        -18.94296       30.67310      -17.66731
N        -19.60772       30.17689      -16.86303
C        -16.03537       31.34699      -20.10607
C        -15.05118       30.39061      -20.38235
C        -15.12774       29.27542      -19.43285
O        -14.41335       28.29472      -19.46421
C        -14.10451       30.52371      -21.38732
C        -14.12124       31.68829      -22.15874
C        -15.08433       32.69866      -21.88471
C        -16.03006       32.51963      -20.85044
C        -15.07499       33.87018      -22.65724
C        -14.14363       34.04401      -23.68239
C        -13.20621       33.05070      -23.95111
C        -13.19368       31.87955      -23.19344
H          8.76999        7.53448        5.01403
H          4.33223        5.37388        5.91618
H          5.00141        5.00698        8.25119
H          6.70299        5.11477       10.02388
H          8.96413        6.00753        9.54082
H          9.51043        6.87267        7.30196
H          5.37930        9.51390        1.62519
H          0.14659        8.59796        2.95012
H          2.53241        7.84574        3.69230
H         -1.39929       10.70370        2.28373
H         -3.05244       11.75739        0.54242
H         -2.48457       12.23389       -5.54882
H         -0.81433       11.22826       -3.80409
H         -5.92295       13.15871       -3.93872
H         -3.96343       14.12670       -6.11377
H         -5.09492       15.43791       -7.85234
H         -7.38061       16.92746       -9.54949
H        -10.14852       15.57851       -6.60409
H         -7.85511       14.07974       -4.90246
H        -11.26164       16.91013       -8.34606
H         -9.27412       17.89929      -10.49136
H        -14.63372       18.58488      -11.34034
H        -13.02193       17.01096       -9.98799
H        -15.13536       19.83649      -13.63081
H        -15.67064       22.10897      -14.84599
H        -12.51164       27.28935      -15.02972
H        -11.83172       24.88293      -14.20402
H        -15.67165       28.43485      -14.69776
H        -15.18299       27.21910      -17.49273
H        -17.02023       29.45251      -16.50587
H        -13.36952       29.73959      -21.54832
H        -16.73200       33.32455      -20.65778
H        -15.79803       34.66117      -22.46963
H        -14.15109       34.95702      -24.27296
H        -12.48265       33.18736      -24.75110
H        -12.45089       31.11643      -23.41884
