164

C         -7.49282       15.31178       -7.23849
C         -7.35209       15.19766       -5.89547
C         -6.08232       15.32066       -5.26787
N         -5.02841       15.38745       -4.79075
C         -8.46692       15.02069       -5.02668
N         -9.35805       14.91673       -4.28622
C         -6.48084       15.81840       -8.18882
C         -7.15674       16.49907       -9.21498
C         -6.49758       17.17301      -10.22788
C         -5.09738       17.10738      -10.25384
C         -4.40140       16.32332       -9.28620
C         -5.10444       15.68474       -8.24986
C         -3.00850       16.19804       -9.37946
C         -2.30040       16.86645      -10.37777
C         -2.97425       17.67020      -11.29333
C         -4.36455       17.78396      -11.23822
C         -8.61271       16.25336       -9.11200
O         -9.48130       16.68528       -9.83881
C         -8.74571       15.25536       -7.99735
C         -9.69053       14.30300       -8.08369
C         -9.69406       13.00013       -7.39019
C         -8.50344       12.33000       -7.05755
C         -8.57142       11.14118       -6.36016
C         -9.79013       10.55182       -6.05735
C        -10.97213       11.11623       -6.50828
C        -10.92204       12.35897       -7.14711
C         -9.57213        9.29798       -5.24015
C         -8.03080        9.13928       -5.37693
O         -7.38103        8.15001       -5.07124
N         -7.52745       10.33514       -5.90168
C         -6.12031       10.67524       -5.98471
C         -5.46748       10.26843       -7.29450
C        -10.04648        9.36091       -3.75937
C        -11.06109       10.50577       -3.49107
O        -12.21489       10.57092       -3.88408
N        -10.42850       11.45639       -2.70111
C         -9.23214       10.96635       -2.21211
C         -8.40459       11.56332       -1.28511
C         -7.27069       10.86231       -0.82783
C         -7.06547        9.55474       -1.33734
C         -7.92866        8.96557       -2.26757
C         -8.99090        9.70706       -2.73471
C         -6.28027       11.47327        0.12578
C         -6.48153       12.74145        0.57868
C         -5.43475       13.44144        1.28961
C         -5.38299       14.72078        1.73585
C         -6.51214       15.72870        1.84026
C         -6.70000       16.17061        3.31875
N         -7.79229       17.12906        3.52743
C         -6.41167       16.93248        0.87628
N         -6.39412       16.55666       -0.53940
C         -3.97801       14.90866        2.10051
C         -3.26048       16.01557        2.33781
C         -1.75165       15.96846        2.54530
C         -1.17370       14.56039        2.63895
C         -1.89911       13.45331        2.40672
C         -3.27278       13.63028        2.02720
C         -4.15096       12.75965        1.51841
C         -4.02038       11.36581        1.20219
C         -5.03708       10.76714        0.55325
C         -1.38379       16.75443        3.77323
C         -1.06441       18.05636        3.73802
C         -0.70999       18.78858        4.94810
C          0.63147       18.86507        5.33710
C          0.93638       19.62737        6.44672
C         -0.05070       20.29765        7.17426
C         -1.38809       20.17704        6.83505
C         -1.71336       19.42566        5.70301
C          0.59564       21.15004        8.24331
C          2.04865       20.61371        8.19696
O          2.91587       20.79652        9.03828
N          2.18357       19.86582        7.02701
C          3.43668       19.30673        6.57660
C          3.69437       17.90927        7.11174
C          0.49642       22.68600        8.02065
C          0.08725       23.08491        6.57481
O         -1.01273       22.97872        6.05848
N          1.20071       23.63665        5.95972
C          2.19597       23.89893        6.88579
C          3.39428       24.54697        6.66598
C          4.21230       24.79150        7.77817
C          3.78292       24.40847        9.06591
C          2.56897       23.73236        9.25550
C          1.79541       23.45378        8.14422
C          5.53494       25.40643        7.58384
C          5.80407       26.72129        7.60878
C          7.03758       27.43593        7.20620
C          8.31630       27.02974        7.39793
C          9.44105       27.84762        7.08214
N         10.35285       28.51135        6.82218
C          8.63107       25.77627        8.00059
N          8.88934       24.75518        8.48448
C          6.59594       28.77954        6.72510
C          5.26039       28.96027        7.11067
C          4.75517       27.77247        7.81191
O          3.72349       27.71196        8.44502
C          4.51570       30.08536        6.80106
C          5.13099       31.09912        6.06311
C          6.48898       30.95688        5.65918
C          7.20917       29.78360        5.98481
C          7.08701       32.00041        4.93430
C          6.36674       33.15271        4.60862
C          5.03418       33.27612        4.99052
C          4.41863       32.25416        5.71184
H         -7.06248       17.70181      -10.98979
H         -4.56109       15.08209       -7.52646
H         -2.45870       15.58068       -8.67193
H         -1.21923       16.76503      -10.43474
H         -2.41693       18.20563      -12.05775
H         -4.86936       18.40997      -11.97105
H        -10.49422       14.42748       -8.81123
H         -7.53647       12.71272       -7.35315
H        -11.93049       10.63318       -6.33457
H        -11.86055       12.82330       -7.44618
H        -10.04492        8.45733       -5.76069
H         -5.59594       10.18136       -5.15797
H         -6.00538       11.75437       -5.82754
H         -5.43017        9.17937       -7.39322
H         -4.43970       10.64647       -7.33459
H         -6.00876       10.67014       -8.15625
H        -10.52134        8.41935       -3.46025
H        -10.87117       12.31735       -2.41175
H         -8.66256       12.55664       -0.94399
H         -6.21254        8.95363       -1.03826
H         -7.73685        7.95710       -2.62339
H         -7.34024       13.34308        0.32482
H         -7.44680       15.21191        1.57730
H         -5.78115       16.60477        3.72527
H         -6.92755       15.28259        3.92240
H         -7.51908       18.04310        3.16637
H         -7.92320       17.26899        4.53000
H         -5.53354       17.54594        1.09554
H         -7.28590       17.57869        1.01471
H         -7.11315       15.85688       -0.71466
H         -6.64926       17.36997       -1.09841
H         -3.71863       16.99623        2.29944
H         -1.28852       16.43551        1.66387
H         -0.12149       14.46234        2.89051
H         -1.47369       12.45980        2.47872
H         -3.13442       10.81816        1.49839
H         -4.93609        9.70878        0.34767
H         -1.39496       16.22034        4.72136
H         -1.06853       18.62549        2.81213
H          1.40018       18.35201        4.77141
H         -2.16235       20.70676        7.38152
H         -2.75324       19.36505        5.38820
H          0.18848       20.87338        9.22385
H          4.24185       19.96733        6.91996
H          3.46470       19.31552        5.48172
H          3.65564       17.89018        8.20549
H          4.68531       17.56493        6.79847
H          2.95304       17.19773        6.73551
H         -0.25271       23.12486        8.69117
H          1.17379       23.98172        5.01220
H          3.68929       24.84542        5.66693
H          4.40452       24.61897        9.93351
H          2.27178       23.40390       10.24648
H          6.29078       24.67363        7.31419
H          3.47787       30.15167        7.11581
H          8.23044       29.68972        5.62748
H          8.12725       31.93180        4.62105
H          6.84782       33.95615        4.05589
H          4.47291       34.17065        4.73163
H          3.37551       32.36975        6.00020
