154

C          4.01809        3.02288        4.38480
C          4.68770        2.51283        5.44745
C          4.70036        1.10264        5.75245
N          4.70511       -0.03536        5.97978
C          5.57372        3.33358        6.20349
N          6.31497        3.98622        6.81250
C          3.38823        2.13337        3.33481
C          3.70980        2.70939        2.10471
C          3.32680        2.17367        0.88205
C          2.54551        1.01175        0.86267
C          2.16455        0.40525        2.09115
C          2.62200        0.96182        3.32826
C          1.32527       -0.72640        2.02721
C          0.87862       -1.24256        0.79948
C          1.29636       -0.66349       -0.39293
C          2.12693        0.45559       -0.36087
C          4.45078        3.97092        2.30867
O          5.19547        4.48875        1.50511
C          4.20896        4.38087        3.74567
C          4.01942        5.69139        4.13660
C          3.73036        6.87339        3.15721
C          4.01914        8.28265        3.15560
C          4.63279        9.21652        4.23636
O          5.46192        8.76100        5.01013
C          4.20694       10.69591        4.27771
C          2.89896       11.04792        3.93357
S          2.60210       12.71439        3.77425
C          4.19638       13.06932        4.21610
C          4.94415       11.95203        4.61512
C          6.29348       12.25325        5.15277
O          6.84375       13.32238        4.87655
C          7.02612       11.36398        6.08256
C          6.39123       10.55785        7.02779
C          7.14222        9.64266        7.77622
C          8.52924        9.58348        7.63789
C          9.17953       10.48115        6.79762
C          8.43093       11.37625        6.03078
C          3.71718        8.99504        1.96233
C          3.04809        8.44935        0.86158
C          2.63085        7.13291        0.86424
C          2.91349        6.42661        2.05661
C          1.98332        6.47373       -0.34401
C          1.75896        7.16487       -1.51131
C          1.19990        6.51141       -2.70522
C          0.86866        6.96177       -3.96390
C          0.93174        8.39298       -4.54382
C          1.91032        8.56679       -5.75531
N          2.03707        9.96531       -6.22651
C         -0.41528        9.05473       -4.98404
N         -1.44095        9.27231       -3.96874
C          0.52386        5.71811       -4.70271
C          0.29253        5.44249       -5.99962
C          0.20075        3.99328       -6.53111
C          0.04845        2.94443       -5.44698
C          0.23251        3.21918       -4.14818
C          0.56717        4.57270       -3.79077
C          0.96762        5.05396       -2.61308
C          1.18682        4.34351       -1.38574
C          1.65082        5.02679       -0.32837
C          1.45420        3.69502       -7.31763
C          1.66414        2.72865       -8.22441
C          2.91176        2.61343       -9.01968
C          3.65769        3.68121       -9.61542
C          3.31149        5.17982       -9.56730
O          2.24374        5.52655       -9.08119
C          4.23382        6.26562      -10.02445
C          5.62228        6.16967      -10.04635
S          6.43029        7.60157      -10.47535
C          4.96651        8.45228      -10.41720
C          3.83710        7.64316      -10.41168
C          2.48543        8.22859      -10.68154
O          1.43173        7.77033      -10.24273
C          2.39517        9.49514      -11.51411
C          1.35622       10.41778      -11.31607
C          1.39699       11.67369      -11.94391
C          2.47147       12.01778      -12.76486
C          3.45042       11.07317      -13.04522
C          3.37666        9.80463      -12.46925
C          4.80103        3.30246      -10.31632
C          5.29097        2.00483      -10.30758
C          4.50277        0.94153       -9.93022
C          3.32188        1.25851       -9.24611
C          4.87732       -0.44180      -10.29273
C          5.50794       -0.83120      -11.42399
C          5.59743       -2.21103      -11.97944
C          5.85125       -3.34722      -11.30046
C          6.00294       -4.59966      -11.92460
N          6.09456       -5.62137      -12.45274
C          6.06161       -3.34154       -9.86602
N          6.19772       -3.34902       -8.73006
C          5.50724       -2.05114      -13.47235
C          5.69017       -0.69762      -13.76970
C          5.93828        0.05767      -12.56234
O          6.51428        1.12303      -12.59491
C          5.60368       -0.11973      -15.02258
C          5.30043       -0.95389      -16.08204
C          5.13802       -2.35193      -15.85501
C          5.24388       -2.89281      -14.54221
C          4.85113       -3.15996      -16.96214
C          4.70003       -2.60436      -18.23755
C          4.83245       -1.23146      -18.43451
C          5.13730       -0.40707      -17.35940
H          3.59354        2.69286       -0.03467
H          2.35106        0.45421        4.25135
H          0.99039       -1.21947        2.93727
H          0.20786       -2.09868        0.77513
H          0.97668       -1.08114       -1.34727
H          2.44767        0.89071       -1.30791
H          3.84606        5.94119        5.18293
H          2.08468       10.39031        3.66964
H          4.51053       14.11083        4.20646
H          5.31500       10.59222        7.16514
H          6.63992        8.94867        8.44541
H          9.10114        8.83963        8.18762
H         10.26345       10.46998        6.72037
H          8.95132       12.07395        5.37595
H          4.00302       10.04000        1.84515
H          2.85702        9.10976        0.02429
H          2.47330        5.44070        2.15187
H          2.03910        8.19935       -1.63911
H          1.33889        9.03039       -3.74482
H          1.57822        7.97647       -6.61462
H          2.91305        8.22249       -5.48943
H          1.25264       10.18107       -6.84691
H          1.93599       10.60139       -5.43383
H         -0.84070        8.53195       -5.84776
H         -0.20395       10.07132       -5.33759
H         -2.10730        8.50264       -4.02208
H         -1.98225       10.09635       -4.24637
H          0.28660        6.21395       -6.76178
H         -0.68386        3.93928       -7.17879
H         -0.17817        1.92824       -5.75661
H          0.15150        2.44734       -3.39322
H          0.99278        3.27886       -1.32551
H          1.81989        4.45478        0.57131
H          2.25510        4.40600       -7.13131
H          0.91726        1.94897       -8.36522
H          6.26982        5.34000       -9.81242
H          5.01332        9.52865      -10.49970
H          0.52182       10.18225      -10.65835
H          0.60411       12.39958      -11.77549
H          2.54095       13.01280      -13.19897
H          4.28425       11.32014      -13.69710
H          4.13862        9.08015      -12.74143
H          5.36842        3.98047      -10.93894
H          6.29308        1.85817      -10.68869
H          2.70111        0.44323       -8.87274
H          4.46017       -1.18816       -9.61848
H          5.73781        0.95191      -15.14170
H          5.07805       -3.95667      -14.40218
H          4.73274       -4.23468      -16.84289
H          4.46886       -3.24686      -19.08275
H          4.69685       -0.80154      -19.42267
H          5.23347        0.66575      -17.52331
