100

C         -1.24360        8.05804        1.58181
C         -1.33204        7.88924        0.23998
C         -1.12656        8.95798       -0.66707
N         -0.98895        9.83632       -1.41703
C         -1.74901        6.64141       -0.32629
N         -2.10782        5.61960       -0.74982
C         -1.02428        9.31279        2.33599
C         -1.59514        9.15078        3.61051
C         -1.51708       10.10479        4.60610
C         -0.77977       11.26104        4.34294
C         -0.13346       11.42840        3.08116
C         -0.28719       10.45628        2.06733
C          0.69041       12.54946        2.89585
C          0.86507       13.48735        3.91751
C          0.19597       13.33786        5.12898
C         -0.62566       12.23253        5.33891
C         -2.07837        7.76771        3.79106
O         -2.64784        7.30752        4.75661
C         -1.57029        7.04346        2.58955
C         -1.13585        5.79074        2.78064
C         -0.02898        5.25789        1.96069
N          0.89719        6.00358        1.40711
C          1.74679        5.09324        0.87348
C          1.28587        3.75639        1.13948
C          2.24973        2.79258        0.54605
O          2.24334        1.58225        0.58094
C          3.26164        3.69276       -0.05801
C          2.88293        5.05758        0.18865
N          3.79970        5.90295       -0.34453
C          4.67027        5.08543       -0.87105
C          4.40414        3.63673       -0.72903
C          0.15086        3.78306        1.82785
C         -0.72949        2.75683        2.27796
C         -0.31247        1.53067        2.62212
C         -1.18410        0.52912        3.09959
S         -2.89638        0.66579        3.33538
C         -3.06859       -0.92904        3.98565
C         -1.83476       -1.47719        4.03011
C         -0.82896       -0.70328        3.50504
N          0.37601       -1.33814        3.52081
N          0.24488       -2.57331        4.10406
C         -1.09020       -2.64214        4.41878
C         -4.32623       -1.46087        4.42428
N         -4.34695       -2.36189        5.38410
C         -5.66337       -2.63300        5.54086
C         -6.44931       -1.86797        4.61109
C         -7.87930       -2.23119        4.78278
O         -8.85047       -1.82383        4.18611
C         -7.82266       -3.22649        5.88184
C         -6.45105       -3.40257        6.28351
N         -6.37097       -4.31392        7.28645
C         -7.61710       -4.65497        7.46583
C         -8.62323       -4.00607        6.59682
C         -5.67658       -1.08380        3.86647
C         -6.02616       -0.20455        2.78648
C         -6.92098        0.78735        2.92271
C         -7.37057        1.64667        1.84504
C         -7.30304        2.98903        1.80623
C         -7.94182        3.94457        0.86579
C         -8.25995        3.73185       -0.43702
C         -8.76900        4.74244       -1.29498
N         -9.18700        5.57063       -1.99118
C         -8.03207        2.47951       -1.07765
N         -7.85178        1.45733       -1.60666
C         -7.99987        5.26255        1.56931
C         -7.21771        5.17462        2.72746
C         -6.65786        3.82104        2.87913
O         -5.80437        3.49599        3.67788
C         -7.00710        6.24199        3.58571
C         -7.56612        7.48069        3.25283
C         -8.38870        7.60167        2.09924
C         -8.63009        6.47178        1.28610
C         -8.91242        8.86469        1.77060
C         -8.59021        9.99235        2.52999
C         -7.77713        9.86785        3.65255
C         -7.29109        8.61545        4.02743
H         -1.94684        9.90800        5.58396
H          0.23121       10.58356        1.11990
H          1.23024       12.69099        1.96121
H          1.53089       14.33413        3.76950
H          0.32589       14.07258        5.91958
H         -1.12823       12.12562        6.29818
H         -1.39431        5.23450        3.67812
H          5.57458        5.41239       -1.40403
H          4.98885        2.80821       -1.07607
H         -1.77987        3.03471        2.33991
H          0.74471        1.28714        2.56133
H          1.26612       -1.02612        3.14921
H         -1.45863       -3.53234        4.91299
H         -7.95242       -5.38700        8.21582
H         -9.68397       -4.15222        6.57279
H         -5.52190       -0.37212        1.83613
H         -7.40812        0.95353        3.88297
H         -7.92356        1.09292        1.09038
H         -6.39213        6.11506        4.47290
H         -9.28790        6.59162        0.43110
H         -9.54827        8.99298        0.89574
H         -8.96399       10.97126        2.23804
H         -7.51021       10.74742        4.23324
H         -6.66452        8.53793        4.91395
