135

C         -4.90908        8.41496       -0.43083
C         -5.51243        7.67623       -1.39070
C         -5.89527        8.24330       -2.64335
N         -6.20824        8.72549       -3.65050
C         -5.91032        6.32624       -1.17026
N         -6.26039        5.22885       -1.03322
C         -4.62945        9.86482       -0.48669
C         -4.69397       10.36914        0.82188
C         -4.44631       11.69425        1.12780
C         -4.06443       12.54640        0.08205
C         -3.93424       12.03684       -1.24467
C         -4.21959       10.68869       -1.52066
C         -3.50166       12.89021       -2.26805
C         -3.21398       14.22851       -2.00239
C         -3.34945       14.72917       -0.71033
C         -3.76935       13.89400        0.32658
C         -4.83993        9.25663        1.78684
O         -4.95463        9.34694        2.98963
C         -4.63954        8.02188        0.95234
C         -3.88224        7.05122        1.49194
C         -3.02769        6.07290        0.78064
C         -2.74250        4.78351        1.27882
C         -3.38047        4.27620        2.54339
O         -4.52225        4.63394        2.80789
C         -2.60310        3.45880        3.49612
C         -1.22093        3.52391        3.60942
S         -0.58264        2.52639        4.83155
C         -2.13619        1.98021        5.25057
C         -3.15621        2.55591        4.50464
C         -4.57930        2.19264        4.68624
O         -5.35959        2.13771        3.74071
C         -5.04462        1.70202        6.02455
C         -6.01190        0.68820        6.06242
C         -6.29942        0.03760        7.26463
C         -5.62580        0.39780        8.43114
C         -4.72914        1.46468        8.41698
C         -4.46858        2.14254        7.22444
C         -1.82479        3.97505        0.58410
C         -1.13641        4.46176       -0.53658
C         -1.38234        5.74330       -1.03981
C         -2.31764        6.52901       -0.35601
C         -0.67842        6.24828       -2.24228
S         -0.20477        7.88480       -2.35121
C          0.72714        7.67830       -3.80626
C          0.50394        6.38219       -4.28759
C         -0.34292        5.58318       -3.40723
C         -0.75444        4.17426       -3.74028
C         -0.68794        3.90378       -5.23569
C          0.67813        4.30821       -5.79724
C          0.68643        4.00315       -7.27997
O          0.38913        4.80993       -8.15527
C          1.04428        5.78709       -5.55938
C          1.61804        8.82818       -4.24421
C          1.96594        9.19631       -5.57065
C          1.15404        8.90339       -6.81927
O         -0.05367        8.73330       -6.72403
C          1.83557        9.05261       -8.13109
C          3.00015        8.34508       -8.41072
S          3.89708        9.01363       -9.69954
C          2.65874       10.12601      -10.03370
C          1.54083        9.99188       -9.21464
C          0.41289       10.90295       -9.46951
O          0.63286       12.02769       -9.92550
C         -1.01399       10.50798       -9.32218
C         -1.44860        9.18085       -9.31390
C         -2.81318        8.89287       -9.18964
C         -3.75039        9.92284       -9.09591
C         -3.33280       11.24834       -9.15640
C         -1.97335       11.53829       -9.28070
C          2.97884       10.16875       -5.76777
C          3.50791       10.91706       -4.72298
C          3.07592       10.70958       -3.42151
C          2.19857        9.63429       -3.20132
C          3.44481       11.75714       -2.43969
C          3.61741       11.75997       -1.10702
C          3.86026       12.93206       -0.22345
C          4.64997       13.99940       -0.47570
C          4.95643       14.99197        0.51098
N          5.19324       15.78888        1.30705
C          5.33213       14.16250       -1.72132
N          5.87292       14.28416       -2.73918
C          3.26105       12.58224        1.09656
C          3.01057       11.20330        1.10608
C          3.38254       10.60189       -0.18702
O          3.50825        9.41728       -0.40947
C          2.42507       10.54442        2.17495
C          2.05217       11.29907        3.29514
C          2.30336       12.70029        3.32083
C          2.89931       13.33405        2.20866
C          1.94040       13.43440        4.46219
C          1.32186       12.81200        5.54841
C          1.05140       11.44777        5.50818
C          1.41759       10.69520        4.39116
H         -4.49636       12.03359        2.15854
H         -4.06906       10.30232       -2.52599
H         -3.38500       12.52029       -3.28537
H         -2.88673       14.88052       -2.80851
H         -3.12582       15.77343       -0.50748
H         -3.85975       14.30641        1.32941
H         -3.73901        7.05592        2.57450
H         -0.52643        4.12196        3.03577
H         -2.22076        1.24783        6.04270
H         -6.51554        0.37483        5.14947
H         -7.02683       -0.77050        7.28437
H         -5.80456       -0.14978        9.35360
H         -4.21464        1.75454        9.33012
H         -3.77653        2.98096        7.23854
H         -1.61228        2.95900        0.91271
H         -0.38438        3.82347       -0.99459
H         -2.46514        7.54725       -0.70447
H         -1.77770        3.98113       -3.39328
H         -0.09350        3.47208       -3.21780
H         -1.48966        4.44944       -5.75022
H         -0.87695        2.83706       -5.41642
H          1.44964        3.67732       -5.33526
H          0.93121        2.96166       -7.54707
H          0.67233        6.38892       -6.38728
H          2.13790        5.87627       -5.55941
H          3.44593        7.54087       -7.84225
H          2.79194       10.84931      -10.83155
H         -0.74874        8.35357       -9.39021
H         -3.14452        7.85767       -9.15759
H         -4.80640        9.69075       -8.98026
H         -4.06007       12.05495       -9.10687
H         -1.66432       12.58016       -9.35243
H          3.31671       10.46006       -6.75971
H          4.19912       11.72244       -4.96914
H          1.91629        9.43650       -2.17168
H          3.51754       12.72134       -2.94671
H          2.24420        9.47482        2.11949
H          3.03965       14.41061        2.24042
H          2.13780       14.50350        4.51993
H          1.04733       13.39413        6.42524
H          0.55563       10.96710        6.34834
H          1.19466        9.63020        4.38339
