110

C         -3.68715        1.63086       -2.65242
C         -4.81178        2.22763       -3.10751
C         -6.10245        1.72402       -2.79033
N         -7.15263        1.30068       -2.52823
C         -4.77180        3.30723       -4.04220
N         -4.77652        4.16249       -4.82390
C         -3.58292        0.38696       -1.86086
C         -2.39466       -0.26474       -2.23623
C         -1.94139       -1.41506       -1.61700
C         -2.64014       -1.86284       -0.48727
C         -3.79756       -1.15903       -0.03405
C         -4.29188       -0.05711       -0.75769
C         -4.39241       -1.53827        1.17767
C         -3.87303       -2.59385        1.92838
C         -2.77252       -3.30753        1.46238
C         -2.16347       -2.94942        0.25880
C         -1.59417        0.61984       -3.12047
O         -0.53431        0.36997       -3.65035
C         -2.31513        1.93487       -3.05372
C         -1.59479        3.05671       -2.88005
C         -2.07591        4.24887       -2.19069
C         -2.47845        4.15590       -0.90400
C         -3.03779        5.27517       -0.19850
C         -3.23502        6.58221       -0.83331
C         -2.85715        6.87258       -2.07724
S         -2.04298        5.73509       -3.11922
C         -3.88573        7.39573        0.11829
C         -4.08987        6.67896        1.27280
C         -4.74366        7.40823        2.27772
C         -5.01777        8.69014        1.82104
S         -4.46260        8.96031        0.19634
C         -3.55259        5.35556        1.06339
C         -3.59644        4.28746        2.02844
C         -4.73953        3.81777        2.54955
C         -4.72209        2.76864        3.49724
N         -5.81680        1.93158        3.53743
C         -5.59850        0.99836        4.51346
C         -6.17961       -0.12988        5.13907
C         -5.25728       -0.52280        6.09815
N         -4.18676        0.34459        6.07756
C         -4.39981        1.25492        5.08492
C         -3.80846        2.37475        4.46264
C         -5.28349       -1.57408        7.04636
C         -4.16323       -2.13905        7.52391
C         -4.16287       -3.23747        8.46934
C         -4.73121       -3.09053        9.68239
C         -4.73928       -4.15809       10.64293
C         -4.13151       -5.46453       10.35892
C         -3.52406       -5.78784        9.21913
S         -3.34658       -4.68275        7.89215
C         -4.31720       -6.25230       11.50940
C         -4.97701       -5.52113       12.46716
C         -5.20005       -6.24254       13.65114
C         -4.68651       -7.52677       13.52457
S         -3.94753       -7.81008       11.98060
C         -5.23889       -4.21009       11.91208
C         -5.91970       -3.13962       12.60494
C         -5.47162       -2.64180       13.76759
C         -6.12761       -1.58794       14.51602
C         -5.69077       -1.03618       15.66063
C         -6.34626       -0.03209       16.53575
C         -7.22164        0.93584       16.16504
C         -7.71704        1.92103       17.06704
N         -8.13176        2.71988       17.80020
C         -7.66457        1.09880       14.82006
N         -8.02687        1.22949       13.72505
C         -5.69429       -0.14627       17.87370
C         -4.54220       -0.93047       17.74228
C         -4.44513       -1.48040       16.38723
O         -3.52544       -2.16581       15.99216
C         -3.65588       -1.18067       18.77942
C         -3.94137       -0.63877       20.03629
C         -5.13605        0.11113       20.22009
C         -6.00855        0.34125       19.13459
C         -5.42605        0.62405       21.49250
C         -4.55082        0.42375       22.56107
C         -3.37399       -0.29575       22.37497
C         -3.07240       -0.82944       21.12135
H         -1.00872       -1.87435       -1.93200
H         -5.15430        0.49043       -0.38713
H         -5.24438       -0.98991        1.57492
H         -4.32318       -2.85047        2.88511
H         -2.37269       -4.13112        2.04894
H         -1.28884       -3.50698       -0.07112
H         -0.52755        3.05468       -3.10567
H         -2.42677        3.21315       -0.36555
H         -3.03908        7.85905       -2.49189
H         -5.00981        7.04727        3.26310
H         -5.51644        9.49058        2.35105
H         -2.63558        3.85552        2.29911
H         -5.69582        4.23310        2.23890
H         -6.65013        1.95783        2.96252
H         -7.12964       -0.60013        4.92389
H         -3.37202        0.35374        6.67643
H         -2.86021        2.83839        4.69590
H         -6.25719       -1.95514        7.34870
H         -3.17729       -1.83484        7.18076
H         -5.19169       -2.14890        9.96835
H         -3.10111       -6.77715        9.08312
H         -5.69544       -5.87806       14.54084
H         -4.70111       -8.32458       14.25444
H         -6.81277       -2.74618       12.12512
H         -4.55397       -3.05846       14.17532
H         -7.07975       -1.28189       14.08668
H         -2.77200       -1.78846       18.60482
H         -6.92124        0.89996       19.32047
H         -6.33651        1.19495       21.66372
H         -4.78744        0.83589       23.53903
H         -2.69006       -0.44258       23.20708
H         -2.14795       -1.39143       20.99961
