129

C          4.85063        5.23976        0.78299
C          5.22123        4.32521       -0.14347
C          6.20261        4.60843       -1.14229
N          7.01430        4.84233       -1.94683
C          4.78208        2.97286       -0.04996
N          4.46409        1.85760        0.03392
C          5.53408        6.53883        1.00275
C          5.62122        6.72377        2.39144
C          6.15785        7.85345        2.97547
C          6.53872        8.89917        2.13065
C          6.42235        8.75940        0.71336
C          5.95021        7.55183        0.15245
C          6.73366        9.86227       -0.09701
C          7.12982       11.07714        0.46944
C          7.25178       11.20148        1.85064
C          6.97018       10.11458        2.67620
C          4.86040        5.66999        3.09278
O          4.84555        5.45488        4.28423
C          4.06708        4.99757        2.00111
C          2.78221        4.70242        2.29681
C          1.56630        4.47132        1.45761
C          0.35840        3.85340        1.92560
C          0.10180        3.40225        3.38048
O          0.89672        3.69386        4.26401
C         -1.11121        2.61621        3.74565
C         -1.57003        1.54947        2.98382
S         -3.00612        0.84519        3.56660
C         -3.00225        1.86260        4.92540
C         -1.91234        2.72309        4.97676
C         -1.73660        3.65021        6.11568
O         -1.34627        4.80248        5.95839
C         -2.17655        3.20494        7.49131
C         -2.73622        4.14447        8.37135
C         -3.21956        3.74615        9.62533
C         -3.14538        2.40907       10.01343
C         -2.56800        1.47187        9.15943
C         -2.07144        1.86878        7.91185
C         -0.71303        3.75171        1.01246
C         -0.65267        4.26275       -0.28592
C          0.45768        4.97427       -0.72137
C          1.55455        5.06065        0.15832
C          0.38700        5.72260       -1.98134
S          0.96846        7.33832       -2.11089
C         -0.24403        5.37928       -3.14353
S         -1.07457        3.90485       -3.79729
C         -1.41879        4.96157       -5.20242
N         -0.99758        6.23096       -5.23261
C         -0.32200        6.43320       -4.05987
C          0.25571        7.60591       -3.66522
C          0.25900        8.86701       -4.32127
C          1.26027        9.75217       -4.18596
C          1.29153       11.06714       -4.84840
C          2.46496       11.63921       -5.39043
C          3.74165       10.90083       -5.77538
O          4.76501       11.57067       -5.88972
C          3.74637        9.45744       -6.10744
C          2.64054        8.79396       -6.62213
S          2.81333        7.10040       -6.67818
C          4.44963        7.22632       -6.25361
C          4.88753        8.53888       -6.11592
C          6.32325        8.82696       -5.93009
O          6.73886        9.66477       -5.13779
C          7.31037        7.96228       -6.67574
C          8.52688        7.63875       -6.06142
C          9.40139        6.72751       -6.66460
C          9.07176        6.13894       -7.88565
C          7.88531        6.48726       -8.52658
C          7.01781        7.41106       -7.93601
C          2.46115       13.03027       -5.63216
C          1.30456       13.80376       -5.46704
C          0.11081       13.19814       -5.08785
C          0.11206       11.84080       -4.77017
C         -1.13183       13.97153       -5.04515
C         -1.74185       14.45588       -3.95185
C         -3.02863       15.17454       -3.86034
C         -3.56452       16.00563       -4.79606
C         -4.75398       16.74529       -4.57536
N         -5.73094       17.34877       -4.40567
C         -2.92860       16.25887       -6.04491
N         -2.41993       16.46797       -7.06764
C         -3.52110       14.98927       -2.46627
C         -2.47741       14.45947       -1.69669
C         -1.30154       14.18180       -2.54097
O         -0.22450       13.79514       -2.14203
C         -2.59339       14.18376       -0.34195
C         -3.82398       14.42730        0.28301
C         -4.91095       14.93882       -0.47995
C         -4.74998       15.20894       -1.85480
C         -6.14132       15.16775        0.15645
C         -6.30300       14.90361        1.51720
C         -5.23983       14.40286        2.26194
C         -4.00848       14.16391        1.64926
H          6.18273        7.94637        4.05728
H          5.84831        7.46318       -0.92642
H          6.64026        9.80206       -1.18067
H          7.33263       11.93236       -0.17135
H          7.55146       12.15035        2.28850
H          7.05754       10.23738        3.75406
H          2.54218        4.78084        3.35812
H         -1.14963        1.15586        2.06865
H         -3.80479        1.76752        5.64694
H         -2.81212        5.19076        8.08209
H         -3.65815        4.47857       10.30019
H         -3.52829        2.09907       10.98403
H         -2.50311        0.42983        9.46580
H         -1.60940        1.11738        7.27646
H         -1.67203        3.32554        1.28802
H         -1.54043        4.16920       -0.90746
H          2.39737        5.67156       -0.15695
H         -1.98340        4.53455       -6.02233
H         -0.57726        9.06549       -4.98978
H          2.13032        9.53721       -3.57020
H          1.67801        9.20579       -6.88950
H          5.04213        6.32218       -6.18636
H          8.78700        8.07111       -5.09745
H         10.33440        6.46263       -6.17209
H          9.74174        5.41129       -8.33884
H          7.62955        6.03105       -9.48052
H          6.10192        7.66913       -8.46250
H          3.37256       13.53322       -5.95537
H          1.34549       14.87496       -5.65409
H         -0.81486       11.39042       -4.41829
H         -1.56194       14.08543       -6.03676
H         -1.74776       13.77371        0.20403
H         -5.60912       15.56994       -2.41138
H         -6.98822       15.56410       -0.40106
H         -7.25989       15.09445        1.99702
H         -5.36796       14.19926        3.32266
H         -3.19312       13.76882        2.25235
