134

C          0.92480        1.94564       -2.97245
C          2.08712        1.86008       -3.78646
C          2.32669        0.78239       -4.74881
N          2.42841       -0.11145       -5.48031
C          3.11276        2.87875       -3.77781
N          3.91772        3.71042       -3.74696
C         -0.32918        1.21003       -3.35030
C         -0.00328       -0.12402       -3.47251
C         -0.94123       -1.14035       -3.59842
C         -2.15286       -0.95250       -2.94644
C         -2.44351        0.30665       -2.36455
C         -1.57903        1.42298       -2.65168
C         -3.50789        0.35657       -1.42416
C         -4.25029       -0.80762       -1.12006
C         -3.99941       -2.00493       -1.79250
C         -2.96319       -2.07369       -2.71366
C          1.04794       -0.26514       -2.38772
O          1.25100       -1.29744       -1.77270
C          1.22956        1.14328       -1.83891
C          0.93018        1.50244       -0.54947
C          0.56730        2.90298       -0.05490
C         -0.27441        3.31648        1.04262
C         -0.43006        4.74456        1.11373
C          0.31129        5.39120        0.15231
S          1.10855        4.30765       -0.82700
C          0.20638        6.84307        0.09529
C         -0.63042        7.41260        1.00678
Ge        -1.43915        6.11505        2.16702
C         -3.30272        6.74890        2.11214
C         -1.08436        6.19134        4.07412
C         -0.81027        8.79028        0.84400
C         -0.05995        9.28968       -0.23204
S          0.81124        8.00595       -0.94972
C         -0.09424       10.67758       -0.73934
C         -0.92212       11.70030       -0.16962
C         -0.97343       12.99651       -0.77493
C         -2.00275       13.81735       -0.60119
C         -1.77606       15.32944       -1.18458
C         -2.98388       16.37328       -1.01496
N         -2.72862       17.71125       -1.55149
C         -0.46211       15.97574       -0.64475
N         -0.44539       16.08998        0.81249
C         -2.92917       13.14280       -1.43679
C         -4.16380       12.77290       -1.18683
C         -4.90736       11.98233       -2.22140
C         -4.14861       11.81952       -3.56904
C         -2.84112       12.17515       -3.75476
C         -2.14140       12.73680       -2.58586
C         -0.85727       12.74125       -2.12347
C          0.26895       12.07909       -2.62595
C          0.67660       11.00722       -1.87093
C         -6.25484       12.61761       -2.39608
C         -7.28222       12.21327       -1.64146
C         -8.58493       12.84176       -1.71182
C         -9.14724       13.45692       -2.84101
C        -10.36069       14.02813       -2.50748
C        -10.70507       13.84023       -1.20369
S         -9.59210       12.95544       -0.35905
C        -11.88692       14.50420       -0.79083
C        -12.50064       15.21721       -1.76936
Ge       -11.69575       14.97460       -3.51119
C        -12.37953       16.45686       -4.54197
C        -11.96436       13.47214       -4.74497
C        -13.59086       15.93814       -1.31737
C        -13.84194       15.61472        0.00737
S        -12.65167       14.61480        0.67650
C        -15.11383       15.83274        0.63968
C        -16.06024       16.76206        0.41490
C        -17.38175       16.62274        1.02508
C        -18.04854       15.46612        1.28698
C        -19.45342       15.50498        1.63329
N        -20.57168       15.40458        1.91170
C        -17.44808       14.15635        1.09879
N        -17.04162       13.08019        0.97035
C        -17.95141       17.95462        1.05377
C        -17.30988       18.78676        0.15883
C        -16.12909       18.04376       -0.36701
O        -15.26895       18.51048       -1.09893
C        -17.79942       20.09726       -0.04864
C        -18.90646       20.53728        0.74346
C        -19.45660       19.66976        1.72834
C        -18.98495       18.38185        1.85995
C        -20.48133       20.08886        2.57870
C        -21.01091       21.36192        2.44725
C        -20.52421       22.21960        1.45658
C        -19.47158       21.81894        0.61136
H         -0.64385       -2.15207       -3.82398
H         -1.76830        2.36272       -2.14688
H         -3.72535        1.25585       -0.86162
H         -5.01652       -0.80152       -0.35153
H         -4.56713       -2.90209       -1.56459
H         -2.73937       -3.02771       -3.17840
H          0.74566        0.67135        0.11530
H         -0.76447        2.63207        1.73230
H         -3.58415        7.11025        1.10147
H         -3.35694        7.64158        2.78231
H         -4.03200        6.00939        2.49206
H         -0.00107        6.10673        4.27278
H         -1.63899        5.36635        4.56973
H         -1.47069        7.15544        4.47156
H         -1.49589        9.37895        1.43731
H         -1.57591       11.47758        0.66221
H         -1.62635       15.25379       -2.29262
H         -3.30268       16.45634        0.05052
H         -3.86350       16.04925       -1.59512
H         -2.46793       18.28338       -0.76140
H         -3.60973       18.23003       -1.70230
H         -0.30170       16.96555       -1.12521
H          0.40167       15.34292       -0.89922
H         -1.16298       16.72021        1.18438
H          0.40067       16.58534        1.13811
H         -4.62238       13.04845       -0.24223
H         -5.07893       10.98168       -1.78382
H         -4.68611       11.34538       -4.38521
H         -2.35031       11.97602       -4.70296
H          0.76995       12.35726       -3.56642
H          1.43745       10.37492       -2.27189
H         -6.37305       13.43800       -3.10595
H         -7.15279       11.41370       -0.92827
H         -8.71007       13.50828       -3.83337
H        -12.58418       17.31451       -3.87143
H        -13.34311       16.12565       -4.99253
H        -11.66627       16.71823       -5.34279
H        -11.83251       12.49228       -4.23798
H        -11.17985       13.55276       -5.52946
H        -12.95670       13.50872       -5.23533
H        -14.23654       16.53232       -1.94216
H        -15.30958       15.12316        1.42010
H        -17.33144       20.75958       -0.76834
H        -19.40656       17.72973        2.60764
H        -20.86735       19.42368        3.34605
H        -21.80547       21.67158        3.11410
H        -20.96373       23.20147        1.35702
H        -19.10708       22.50930       -0.13647
