132

C        -10.78001       -2.21805        1.89836
C        -10.32023       -2.06735        0.63696
C         -8.97475       -2.36959        0.27768
N         -7.87196       -2.58871        0.01130
C        -11.18296       -1.66291       -0.42024
N        -11.89367       -1.36590       -1.29182
C        -10.09210       -2.85704        3.03710
C        -11.08155       -3.42299        3.86074
C        -10.78830       -4.12501        5.01185
C         -9.44764       -4.18511        5.41207
C         -8.44177       -3.51909        4.64879
C         -8.76937       -2.87260        3.44361
C         -7.12768       -3.49475        5.12988
C         -6.79663       -4.13437        6.32532
C         -7.76817       -4.82344        7.04474
C         -9.08614       -4.85165        6.58969
C        -12.42742       -2.97011        3.42970
O        -13.49444       -3.27126        3.91336
C        -12.14113       -1.94967        2.37332
C        -12.84271       -0.80002        2.37415
C        -12.37397        0.47913        1.83872
C        -11.07104        0.81643        1.93856
C        -10.52755        2.01458        1.38639
C        -11.38078        3.04336        0.79077
C        -12.70377        2.94174        0.66830
S        -13.61135        1.54302        1.18509
C        -10.52111        4.08867        0.40413
C         -9.22294        3.75913        0.71656
C         -8.29730        4.75101        0.35905
C         -8.96103        5.82332       -0.22123
S        -10.67857        5.58527       -0.31618
C         -9.23760        2.45208        1.32974
C         -8.05979        1.75966        1.80254
C         -7.24097        2.29083        2.72063
C         -5.97109        1.73502        3.15688
C         -5.78764        1.58330        4.49173
C         -4.45041        1.36645        5.01344
C         -3.99062        1.32330        6.29169
C         -4.74234        1.20312        7.60950
C         -5.09338        2.61152        8.15698
N         -5.83947        2.62147        9.41895
C         -6.01992        0.30960        7.54031
N         -5.79419       -1.07647        7.13231
C         -2.54071        1.54785        6.14433
C         -1.60849        1.97155        7.01386
C         -0.21892        2.41314        6.55038
C          0.09412        2.09624        5.09346
C         -0.83230        1.64024        4.23491
C         -2.17236        1.49059        4.72917
C         -3.32441        1.38182        4.05920
C         -3.57778        1.34962        2.64263
C         -4.84642        1.51831        2.22386
C          0.82950        1.81971        7.43596
C          1.31521        2.43202        8.52996
C          2.33045        1.85564        9.39250
C          2.40824        0.52014        9.54678
C          3.40686       -0.09976       10.36147
C          4.42479        0.68323       11.06900
C          4.49109        2.01281       11.06732
S          3.36283        3.02275       10.21150
C          5.25777       -0.24662       11.71293
C          4.82008       -1.52315       11.45140
C          5.60125       -2.51106       12.06765
C          6.62894       -1.91536       12.78685
S          6.60594       -0.18227       12.69415
C          3.65013       -1.42016       10.61056
C          2.90283       -2.55487       10.11294
C          1.58437       -2.71326       10.32013
C          0.82383       -3.85345        9.84333
C         -0.48873       -4.08659       10.02889
C         -1.29532       -5.27273        9.65034
C         -1.09743       -6.10649        8.59940
C         -2.01623       -7.14076        8.24594
N         -2.75715       -7.97887        7.96087
C          0.00914       -5.97801        7.71127
N          0.91249       -5.88382        6.99109
C         -2.50824       -5.25789       10.52106
C         -2.59166       -4.00719       11.14097
C         -1.39872       -3.20321       10.84479
O         -1.22211       -2.06545       11.23007
C         -3.63090       -3.63550       11.98115
C         -4.62152       -4.58147       12.26704
C         -4.52823       -5.88578       11.70734
C         -3.47074       -6.21043       10.83091
C         -5.49407       -6.84325       12.05188
C         -6.53699       -6.52626       12.92376
C         -6.64021       -5.24218       13.45040
C         -5.69055       -4.27371       13.12216
H        -11.58844       -4.54966        5.60961
H         -7.99431       -2.35736        2.88158
H         -6.34992       -2.95466        4.59268
H         -5.77887       -4.07810        6.70533
H         -7.50147       -5.32819        7.97023
H         -9.83106       -5.38944        7.17286
H        -13.78141       -0.75504        2.93324
H        -10.35163        0.17989        2.43621
H        -13.27418        3.75010        0.22246
H         -7.22538        4.71161        0.50559
H         -8.53482        6.74155       -0.59972
H         -7.83643        0.78899        1.36175
H         -7.48141        3.25509        3.16846
H         -6.58842        1.81634        5.17840
H         -4.07722        0.71651        8.33871
H         -5.67617        3.17199        7.41709
H         -4.17177        3.18123        8.32359
H         -6.73616        2.15054        9.30729
H         -5.33011        2.09333       10.12824
H         -6.77682        0.75096        6.88980
H         -6.48792        0.24876        8.52749
H         -5.40092       -1.10149        6.19259
H         -6.70338       -1.54099        7.06652
H         -1.84275        2.14010        8.05975
H         -0.17869        3.50752        6.64165
H          1.10494        2.28380        4.73726
H         -0.60234        1.44558        3.19417
H         -2.75647        1.22408        1.94631
H         -5.05833        1.55480        1.15998
H          1.18758        0.83400        7.14724
H          0.93880        3.41572        8.80972
H          1.72396       -0.14176        9.02916
H          5.27137        2.52275       11.62106
H          5.44592       -3.57968       12.01046
H          7.40000       -2.39783       13.37096
H          3.48195       -3.29923        9.57211
H          1.05768       -1.95083       10.89033
H          1.43584       -4.58222        9.31657
H         -3.64386       -2.64225       12.42214
H         -3.42291       -7.22063       10.43640
H         -5.43871       -7.85376       11.65097
H         -7.26821       -7.28472       13.19278
H         -7.45622       -4.99600       14.12554
H         -5.78791       -3.27790       13.55050
