138

C          1.57319        3.91908        6.13663
C          2.24042        4.54873        7.14658
C          3.03148        3.82386        8.08343
N          3.69766        3.22897        8.83888
C          2.00016        5.93059        7.45908
N          1.75399        7.03851        7.72913
C          0.84667        2.70911        6.58114
C         -0.49984        3.09213        6.68023
C         -1.43283        2.30043        7.31296
C         -1.04249        0.99253        7.64289
C          0.26443        0.52437        7.29633
C          1.23879        1.41705        6.83296
C          0.55509       -0.83933        7.40126
C         -0.38992       -1.72551        7.91291
C         -1.61299       -1.24947        8.37901
C         -1.93854        0.10220        8.24775
C         -0.69991        4.32821        5.86694
O         -1.72058        4.96298        5.71714
C          0.65629        4.56226        5.21434
C          0.72646        4.90190        3.90524
C          1.73065        4.95333        2.76256
C          2.86298        4.14469        2.46542
C          3.47472        3.06461        3.33321
O          2.77002        2.45379        4.12433
C          4.92227        2.71781        3.22934
C          5.27375        1.78209        2.26022
S          6.88797        1.27118        2.32958
C          7.17124        2.24564        3.68751
C          6.09979        3.05686        4.07223
C          6.39985        3.99154        5.20653
O          7.38219        3.78823        5.92545
C          5.70032        5.28283        5.44603
C          6.31036        6.33660        6.13954
C          5.64168        7.56030        6.30939
C          4.38756        7.76497        5.74288
C          3.77140        6.72060        5.08228
C          4.40837        5.48856        5.01941
C          3.47914        4.32115        1.21998
C          3.04584        5.26992        0.28809
C          2.03939        6.20634        0.53862
C          1.37661        5.96300        1.77551
C          1.68361        7.30788       -0.50635
C          2.49430        7.51356       -1.66342
C          2.00692        8.25239       -2.77522
N          2.73611        8.36479       -3.91848
C          3.97579        7.84680       -3.94555
C          4.48895        7.19777       -2.86098
N          3.75861        7.02361       -1.74247
C          0.77487        8.90394       -2.69381
C          0.15737        9.01451       -1.44287
C          0.58889        8.19198       -0.35569
N         -0.04946        8.30862        0.83351
C         -1.00741        9.24453        0.98582
C         -1.38089       10.05542       -0.04619
N         -0.83689        9.91915       -1.26626
C          0.13853        9.35428       -3.99163
C         -0.89610       10.19188       -4.19601
C         -1.68326       10.18943       -5.44963
C         -1.23604       10.36877       -6.76452
C          0.02803       11.01508       -7.27114
O          0.36521       10.77126       -8.42980
C          0.81536       11.99642       -6.52419
C          1.89558       11.54279       -5.78290
S          2.93153       12.77700       -5.24509
C          2.02796       13.95027       -6.07872
C          0.88904       13.45443       -6.70607
C          0.06817       14.42486       -7.46977
O          0.57901       15.34703       -8.10097
C         -1.39603       14.49001       -7.24368
C         -2.20998       13.39691       -7.49378
C         -3.54361       13.39417       -7.08997
C         -4.10040       14.54041       -6.53492
C         -3.33423       15.70105       -6.43559
C         -1.97950       15.67764       -6.78417
C         -2.11532        9.97498       -7.80244
C         -3.43905        9.58147       -7.57102
C         -3.97717        9.62687       -6.29743
C         -3.06074        9.85672       -5.24840
C         -5.41085        9.39326       -5.97024
C         -6.55794        9.56517       -6.66586
C         -7.96626        9.43447       -6.16441
C         -8.42368        8.61933       -5.19034
C         -9.80560        8.48506       -4.86631
N        -10.93379        8.38210       -4.59568
C         -7.56847        7.76524       -4.42481
N         -6.86883        7.09152       -3.79144
C         -8.83020       10.24798       -7.07943
C         -8.07036       10.59518       -8.19662
C         -6.68735       10.13711       -8.05572
O         -5.87132       10.24622       -8.94439
C         -8.55100       11.34090       -9.26391
C         -9.86503       11.80547       -9.20838
C        -10.66924       11.49844       -8.07717
C        -10.13878       10.72052       -7.01709
C        -11.98446       11.99106       -8.04002
C        -12.49152       12.77085       -9.08393
C        -11.69444       13.07057      -10.18436
C        -10.38850       12.58820      -10.24840
H         -2.44660        2.65613        7.46991
H          2.25178        1.09221        6.60536
H          1.51014       -1.22774        7.05176
H         -0.16560       -2.78821        7.95503
H         -2.32851       -1.93849        8.81987
H         -2.90865        0.44595        8.59973
H         -0.25999        5.18819        3.51405
H          4.63121        1.34669        1.50598
H          8.15088        2.20281        4.15141
H          7.30326        6.21613        6.56910
H          6.09740        8.36267        6.88378
H          3.85267        8.70115        5.86857
H          2.76099        6.83820        4.70149
H          3.82724        4.64537        4.73869
H          4.31410        3.70840        0.89321
H          3.55806        5.21066       -0.66576
H          0.50292        6.56495        2.01480
H          4.54429        7.98310       -4.85733
H          5.49237        6.78908       -2.84885
H         -1.45268        9.32461        1.97025
H         -2.11860       10.83990        0.06972
H          0.52727        8.81347       -4.85692
H         -1.36782       10.71494       -3.37015
H          2.16986       10.51586       -5.58604
H          2.38031       14.97467       -6.08997
H         -1.81618       12.55855       -8.04474
H         -4.14821       12.50222       -7.22686
H         -5.13970       14.53741       -6.21771
H         -3.79144       16.62031       -6.07810
H         -1.38560       16.58504       -6.69589
H         -1.79756       10.03327       -8.84559
H         -4.02035        9.28244       -8.43494
H         -3.41761        9.75606       -4.22074
H         -5.49929        9.10781       -4.92462
H         -7.89876       11.56999      -10.10284
H        -10.77637       10.53203       -6.15868
H        -12.63248       11.77301       -7.19319
H        -13.51099       13.14603       -9.03670
H        -12.08775       13.68151      -10.99350
H         -9.77979       12.83547      -11.11650
