168

C          7.32598       19.31711       -6.95874
C          7.25761       18.55468       -8.07341
C          6.87492       19.09201       -9.33783
N          6.56446       19.53843      -10.36307
C          7.68602       17.19407       -8.09530
N          8.04942       16.09494       -8.18488
C          7.11981       20.78249       -6.87256
C          7.84788       21.26503       -5.77200
C          7.81775       22.58324       -5.36001
C          6.94955       23.45174       -6.03038
C          6.17207       22.97792       -7.12847
C          6.28773       21.64596       -7.56447
C          5.24874       23.83952       -7.73320
C          5.07464       25.13935       -7.25887
C          5.84329       25.60513       -6.19526
C          6.78433       24.77096       -5.59149
C          8.44424       20.14464       -5.02285
O          9.16136       20.22451       -4.04841
C          7.86272       18.92152       -5.65661
C          7.65268       17.84379       -4.89343
N          6.81382       16.77513       -5.12981
C          6.51360       15.76923       -4.11698
C          5.11219       15.19863       -4.21811
C          4.92475       13.86696       -3.78863
C          3.66570       13.25544       -3.79635
O          3.43512       11.99203       -3.32012
C          4.50090       11.03975       -3.40014
C          4.93289       10.60825       -2.00837
C          2.55833       13.98504       -4.25157
C          2.73579       15.32275       -4.65294
C          3.98392       15.94593       -4.58803
O          4.17085       17.27218       -4.88556
C          3.04265       18.12898       -4.68500
C          3.54206       19.50842       -4.29443
C          1.15986       13.41810       -4.30154
N          0.41787       13.84272       -3.12936
C         -0.95159       13.86602       -3.03802
C         -1.64973       14.07393       -1.92004
C         -3.08872       13.95565       -1.77514
C         -3.80325       15.04528       -1.38488
C         -5.03395       14.80961       -0.64680
C         -5.87548       15.66611       -0.01054
C         -6.10830       17.13075       -0.33498
C         -7.31974       17.21434       -1.31551
N         -7.10056       16.53676       -2.59719
C         -6.34785       18.04475        0.89093
N         -6.41941       19.48181        0.59167
C         -6.55585       14.81274        0.97358
C         -7.14420       15.08604        2.15066
C         -7.54103       13.98308        3.12620
C         -7.45691       12.57328        2.54636
C         -6.88872       12.30462        1.35977
C         -6.30345       13.40773        0.65473
C         -5.40608       13.41432       -0.33429
C         -4.82346       12.33732       -1.08926
C         -3.72750       12.62235       -1.81493
C         -8.88945       14.26547        3.72829
C        -10.05098       13.88675        3.18862
N        -11.28409       14.04350        3.74050
C        -12.52844       13.64777        3.11768
C        -13.52922       13.31749        4.18835
C        -13.50664       12.02238        4.72549
C        -14.40417       11.61282        5.71313
O        -14.40048       10.32310        6.18536
C        -14.22179        9.30862        5.17930
C        -13.59145        8.07679        5.80196
C        -15.26600       12.56308        6.28448
C        -15.23429       13.88592        5.78100
C        -14.40077       14.26304        4.72568
O        -14.38926       15.51170        4.16258
C        -14.78531       16.58522        5.01670
C        -14.66003       17.89082        4.25401
C        -16.14971       12.23983        7.47614
N        -17.34773       13.07898        7.49890
C        -18.32023       13.06587        8.47260
C        -19.46537       13.75678        8.42709
C        -20.48000       13.65837        9.45609
C        -21.77513       13.99228        9.33704
C        -22.85462       13.97410       10.35086
C        -22.95762       13.13747       11.41523
C        -24.10673       13.10574       12.25699
N        -25.04884       13.07940       12.94599
C        -21.96716       12.15575       11.73404
N        -21.16146       11.37212       11.99672
C        -23.91938       14.89667        9.85661
C        -23.64294       15.19772        8.51679
C        -22.37214       14.59949        8.09668
O        -21.93213       14.63059        6.96679
C        -24.42799       16.02938        7.73413
C        -25.53319       16.64100        8.32701
C        -25.84084       16.37638        9.69110
C        -25.02512       15.49884       10.44678
C        -26.95321       17.01584       10.26298
C        -27.73012       17.90844        9.51872
C        -27.41199       18.17375        8.19057
C        -26.32389       17.53793        7.59496
H          8.38423       22.89538       -4.48719
H          5.66588       21.29763       -8.38383
H          4.63154       23.49673       -8.56150
H          4.32941       25.78576       -7.71525
H          5.70028       26.61674       -5.82444
H          7.36431       25.15221       -4.75333
H          8.10748       17.80491       -3.90137
H          5.98126       17.02763       -5.66541
H          6.64078       16.17224       -3.10560
H          7.24395       14.96170       -4.25070
H          5.79249       13.33178       -3.41210
H          5.36176       11.38288       -3.98204
H          4.10762       10.16915       -3.93515
H          5.22462       11.46636       -1.39478
H          5.77810        9.91488       -2.06742
H          4.11168       10.10429       -1.48759
H          1.86264       15.86771       -5.00436
H          2.38493       17.77159       -3.88401
H          2.48217       18.18972       -5.62397
H          4.09130       19.46260       -3.34775
H          2.70189       20.19912       -4.17591
H          4.22922       19.90805       -5.04613
H          1.16377       12.32743       -4.39771
H          0.66089       13.80478       -5.19990
H          0.91844       13.74118       -2.24765
H         -1.46615       13.69494       -3.98029
H         -1.12717       14.23552       -0.97850
H         -3.35582       16.03118       -1.31983
H         -5.22373       17.52140       -0.85694
H         -7.57809       18.25184       -1.54580
H         -8.20358       16.77274       -0.83910
H         -6.59506       17.15123       -3.23311
H         -7.99522       16.32968       -3.03608
H         -5.54847       17.89964        1.62642
H         -7.29762       17.78496        1.36503
H         -6.96392       19.65531       -0.24971
H         -6.93500       19.94419        1.34284
H         -7.25066       16.09418        2.52239
H         -6.81669       14.01153        3.95284
H         -7.85760       11.75906        3.14336
H         -6.81575       11.29802        0.96814
H         -5.28356       11.35807       -1.09766
H         -3.25662       11.85819       -2.42514
H         -8.88774       14.80774        4.66995
H        -10.06558       13.38559        2.22173
H        -11.33316       14.36013        4.70446
H        -12.36837       12.75491        2.49728
H        -12.89262       14.42742        2.44232
H        -12.73084       11.35309        4.36364
H        -13.56934        9.60158        4.35370
H        -15.19871        9.06223        4.74984
H        -12.63312        8.32922        6.26827
H        -13.41172        7.31484        5.03602
H        -14.23504        7.65432        6.57762
H        -15.89309       14.61877        6.23547
H        -14.13553       16.61159        5.89921
H        -15.83144       16.47909        5.32004
H        -13.66238       18.00415        3.81939
H        -14.86263       18.73878        4.91485
H        -15.37788       17.91690        3.42718
H        -15.56750       12.42608        8.38755
H        -16.45110       11.18787        7.46565
H        -17.67791       13.39124        6.58808
H        -18.09516       12.39734        9.29829
H        -19.64617       14.42270        7.58608
H        -20.09069       13.28979       10.40151
H        -24.15435       16.21663        6.69914
H        -25.26980       15.34391       11.49314
H        -27.22526       16.83082       11.30071
H        -28.58281       18.40183        9.97957
H        -28.00820       18.87925        7.61637
H        -26.08936       17.76141        6.55591
