158

C          4.82916       11.96433        5.52689
C          3.87053       12.82027        5.96908
C          3.11644       12.57681        7.12586
N          2.48311       12.35659        8.08188
C          3.68672       14.12088        5.40999
N          3.53683       15.21547        5.04430
C          5.40250       10.86419        6.34442
C          6.76254       10.75698        6.01276
C          7.63249        9.89767        6.66213
C          7.11167        9.06662        7.66400
C          5.71781        9.10235        7.96187
C          4.87031       10.00908        7.29674
C          5.20194        8.22461        8.92584
C          6.03842        7.33709        9.60293
C          7.40377        7.32167        9.33279
C          7.93786        8.17903        8.36892
C          7.06833       11.60036        4.83658
O          8.14422       11.72622        4.29342
C          5.74353       12.15446        4.40490
C          5.53778       12.35283        3.09287
C          4.22244       12.36520        2.44494
C          3.68043       11.15557        1.97188
C          2.42986       11.16527        1.36322
C          1.70465       12.37121        1.26988
C          2.22956       13.56474        1.73758
C          3.51058       13.56167        2.28803
C          0.44311       12.12751        0.61709
C          0.34681       10.77005        0.26561
C          1.62293       10.01474        0.72606
C          2.32256        9.45893       -0.55511
C          3.60818        8.65094       -0.39021
C          1.24869        8.90539        1.74480
C          0.56821        9.37811        3.03595
C         -0.78605       10.28577       -0.39508
C         -1.83580       11.17259       -0.72650
C         -1.69918       12.53100       -0.36181
C         -0.57856       13.00832        0.32201
C         -3.08513       10.68398       -1.39933
C         -4.26955       11.30411       -1.12382
C         -5.52787       10.72731       -1.56835
C         -6.82120       11.06875       -1.29317
C         -7.38223       12.29799       -0.56694
C         -8.78186       12.75307       -1.11221
N         -9.40401       13.92232       -0.47591
C         -7.44854       12.10966        0.97232
N         -6.16310       11.90428        1.63855
C         -7.59440        9.92464       -1.79881
C         -8.86384        9.54200       -1.59565
C         -9.42928        8.22779       -2.10095
C         -8.45793        7.43165       -2.95625
C         -7.18167        7.80095       -3.15977
C         -6.71727        8.99822       -2.51225
C         -5.47633        9.46973       -2.34535
C         -4.20950        8.92384       -2.76106
C         -3.08277        9.50671       -2.30686
C        -10.72946        8.44455       -2.83242
C        -11.83589        8.93329       -2.25016
C        -13.08763        9.07730       -2.98158
C        -14.00837        8.02498       -2.96867
C        -15.21379        8.20803       -3.62441
C        -15.49855        9.41251       -4.30685
C        -14.57831       10.44441       -4.34166
C        -13.36544       10.27191       -3.67247
C        -16.81135        9.32197       -4.89929
C        -17.35359        8.05675       -4.61536
C        -16.39808        7.24587       -3.73350
C        -15.99069        5.89785       -4.39230
C        -15.28476        6.00302       -5.74412
C        -17.03458        6.96378       -2.33712
C        -17.40668        8.19166       -1.50179
C        -18.60184        7.69538       -5.09517
C        -19.37166        8.63644       -5.79531
C        -18.80408        9.89277       -6.09546
C        -17.52404       10.24128       -5.64742
C        -20.72450        8.33526       -6.30905
C        -21.65833        7.53778       -5.76057
C        -22.89183        7.00701       -6.38066
C        -23.77459        7.69067       -7.14509
C        -24.99436        7.11527       -7.59995
N        -25.98621        6.63916       -7.97057
C        -23.57244        9.05983       -7.49024
N        -23.39687       10.16798       -7.77837
C        -23.04410        5.61994       -5.84695
C        -22.17450        5.48415       -4.75629
C        -21.47025        6.74177       -4.50652
O        -20.91002        7.03889       -3.47388
C        -21.93959        4.29558       -4.09096
C        -22.62854        3.16444       -4.52479
C        -23.56959        3.27074       -5.59038
C        -23.76412        4.50572       -6.25280
C        -24.27378        2.12071       -5.97729
C        -24.03421        0.89141       -5.35797
C        -23.08515        0.78961       -4.34613
C        -22.38588        1.92042       -3.92932
H          8.68065        9.86333        6.37689
H          3.81048       10.01515        7.53564
H          4.13885        8.22297        9.16035
H          5.62223        6.65999       10.34491
H          8.05478        6.63651        9.87015
H          9.00765        8.14480        8.17262
H          6.37822       12.31599        2.40018
H          4.24401       10.23325        2.06854
H          1.67153       14.49298        1.66782
H          3.94271       14.50914        2.60182
H          2.54817       10.29376       -1.23336
H          1.61992        8.81516       -1.10160
H          4.36991        9.17291        0.18912
H          4.04791        8.46428       -1.37816
H          3.41975        7.67628        0.06860
H          2.14224        8.34074        2.03569
H          0.57253        8.18832        1.26101
H          1.27765        9.88226        3.70017
H          0.16925        8.51578        3.58195
H         -0.26985       10.05607        2.84861
H         -0.85208        9.22791       -0.63213
H         -2.47794       13.25117       -0.60012
H         -0.52551       14.05294        0.60839
H         -4.34280       12.15599       -0.45886
H         -6.70107       13.13802       -0.76907
H         -9.51915       11.96918       -0.97539
H         -8.71991       12.94238       -2.19033
H         -9.32458       13.87009        0.53718
H        -10.41205       13.87886       -0.64651
H         -8.12447       11.28486        1.22231
H         -7.85832       13.00981        1.43806
H         -5.74465       11.03324        1.31487
H         -6.32408       11.78988        2.63891
H         -9.54074       10.10552       -0.97590
H         -9.63794        7.61680       -1.21150
H         -8.82529        6.51128       -3.40035
H         -6.50948        7.21242       -3.77136
H         -4.17908        8.06319       -3.41841
H         -2.12268        9.10797       -2.62228
H        -10.76412        8.15828       -3.88197
H        -11.86083        9.23502       -1.20708
H        -13.79110        7.09439       -2.45447
H        -14.78816       11.36729       -4.87065
H        -12.63444       11.07697       -3.68803
H        -16.88089        5.26859       -4.52235
H        -15.32454        5.34411       -3.71665
H        -15.84975        6.60807       -6.45837
H        -15.16404        5.00491       -6.17892
H        -14.28397        6.43340       -5.63854
H        -16.34444        6.35634       -1.73658
H        -17.94278        6.35879       -2.46261
H        -16.53139        8.80646       -1.27112
H        -17.83794        7.87445       -0.54582
H        -18.14948        8.81781       -2.00450
H        -18.95985        6.69369       -4.89107
H        -19.35962       10.62141       -6.68333
H        -17.11067       11.21737       -5.87650
H        -20.90283        8.78917       -7.28203
H        -21.20886        4.25699       -3.28815
H        -24.44769        4.54301       -7.09560
H        -25.01816        2.16951       -6.77045
H        -24.58811        0.01042       -5.67089
H        -22.88611       -0.17208       -3.87835
H        -21.64658        1.82019       -3.13610
