128

C         -2.12700        3.77339        4.31494
C         -2.91673        3.25051        3.34988
C         -2.90192        1.86628        3.01789
N         -2.86992        0.73797        2.74635
C         -3.95323        4.02518        2.75693
N         -4.84443        4.63960        2.32225
C         -1.41781        2.97497        5.33702
C         -1.59136        3.62392        6.57064
C         -1.12835        3.09146        7.76234
C         -0.37819        1.90395        7.70886
C         -0.10102        1.29405        6.44902
C         -0.64977        1.82462        5.26579
C          0.73720        0.16975        6.40377
C          1.27137       -0.37223        7.57342
C          0.95990        0.19086        8.80715
C          0.14277        1.32176        8.87548
C         -2.18233        4.97087        6.35090
O         -2.48681        5.78509        7.19457
C         -2.21096        5.13590        4.85294
C         -1.94670        6.34507        4.31683
C         -1.35515        6.49012        3.01742
S          0.37991        6.31956        2.90973
C          0.39043        6.31351        1.18915
C         -0.91030        6.39121        0.72584
C         -1.84361        6.81011        1.75914
C         -3.12765        7.29641        1.44502
C         -4.01656        8.08824        2.31089
O         -5.23265        7.92321        2.19944
C         -3.39564        9.18566        3.16472
F         -2.04384        9.30640        3.03853
F         -3.89637       10.41545        2.85411
F         -3.63458        9.00139        4.49199
C         -3.45807        7.15655        0.07165
C         -2.57181        6.62092       -0.90827
C         -1.24041        6.25695       -0.63105
C          1.62839        6.23261        0.46196
C          2.11756        7.38744       -0.07542
C          3.18746        7.31891       -1.06721
C          3.70106        8.25867       -1.91813
C          3.38370        9.75744       -1.96988
C          4.32181       10.59349       -1.05177
N          4.22341       10.25503        0.37254
C          3.39086       10.37082       -3.39631
N          3.00670       11.78262       -3.49594
C          4.50663        7.45752       -2.86974
C          4.88801        7.66683       -4.14530
C          5.43594        6.56155       -5.04839
C          5.76732        5.27345       -4.30490
C          5.39718        5.06090       -3.03092
C          4.63644        6.08752       -2.37196
C          3.79574        5.99756       -1.33516
C          3.35496        4.82480       -0.62356
C          2.29410        4.94315        0.19538
C          6.62626        7.06256       -5.82860
C          6.55808        7.53572       -7.08871
C          7.72867        8.03976       -7.72342
S          8.05133        9.72418       -7.43945
C          9.55363        9.69539       -8.25433
C          9.84639        8.40718       -8.64918
C          8.72447        7.46892       -8.51135
C          8.78851        6.15317       -9.06693
C          7.67402        5.16860       -9.19959
O          6.76650        5.14651       -8.36773
C          7.66798        4.19239      -10.38530
F          8.72632        4.27793      -11.23819
F          7.64503        2.89416       -9.96308
F          6.56351        4.34890      -11.17158
C         10.08732        5.85015       -9.57126
C         11.17967        6.76253       -9.62501
C         11.09077        8.09450       -9.20720
C         10.29470       10.90572       -8.39585
C         10.17098       11.71616       -9.46348
C         10.95655       12.92182       -9.82615
C         11.52679       13.81116       -8.97257
C         12.18698       14.98828       -9.41663
N         12.74501       15.94891       -9.77522
C         11.46293       13.66353       -7.55854
N         11.42027       13.53094       -6.40459
C         10.83809       13.07578      -11.30633
C          9.82491       12.22060      -11.75693
C          9.30083       11.40348      -10.65631
O          8.37024       10.63204      -10.75284
C          9.44365       12.11099      -13.08794
C         10.13066       12.86896      -14.03566
C         11.18784       13.72752      -13.62280
C         11.52974       13.82407      -12.25201
C         11.88425       14.45639      -14.59874
C         11.55406       14.34381      -15.95185
C         10.51671       13.50567      -16.35070
C          9.80738       12.77406      -15.39885
H         -1.30213        3.61376        8.69922
H         -0.44009        1.34827        4.31162
H          0.99482       -0.29100        5.45158
H          1.92860       -1.23700        7.51994
H          1.36351       -0.24437        9.71858
H         -0.07408        1.74978        9.85233
H         -1.92579        7.21609        4.97049
H         -4.43904        7.49845       -0.26734
H         -2.93123        6.53822       -1.93562
H         -0.56759        5.90507       -1.40550
H          1.66078        8.35032        0.11827
H          2.36041        9.88968       -1.59048
H          4.07192       11.65790       -1.13914
H          5.36502       10.48560       -1.37100
H          3.24741       10.26287        0.66028
H          4.68384       10.98528        0.91598
H          2.72271        9.79308       -4.04500
H          4.40460       10.33151       -3.80113
H          2.05778       11.92396       -3.15881
H          3.00632       12.05048       -4.48212
H          4.69141        8.58747       -4.66894
H          4.63176        6.30897       -5.75661
H          6.27839        4.49256       -4.85419
H          5.62042        4.13135       -2.51604
H          3.82269        3.86628       -0.81440
H          1.88842        4.06021        0.68076
H          7.58129        7.03595       -5.30916
H          5.61261        7.60251       -7.62071
H         10.31006        4.85090       -9.94671
H         12.12864        6.40864      -10.03106
H         11.92854        8.77584       -9.28770
H         11.02446       11.09128       -7.61540
H          8.65025       11.42197      -13.36788
H         12.35718       14.47173      -11.97667
H         12.70093       15.11969      -14.31724
H         12.10917       14.90963      -16.69583
H         10.26194       13.41736      -17.40373
H          9.00360       12.12077      -15.73260
