124

C         -0.91557        3.90861       -8.00778
C          0.31920        3.68259       -8.51694
C          0.51996        3.04149       -9.77410
N          0.67785        2.52506      -10.80119
C          1.50542        4.02220       -7.80676
N          2.46916        4.32593       -7.23645
C         -2.22084        3.50885       -8.60779
C         -3.17359        3.44758       -7.57981
C         -4.52384        3.23192       -7.79650
C         -4.97001        3.18932       -9.11956
C         -4.03372        3.26453      -10.19219
C         -2.65089        3.38326       -9.92368
C         -4.52029        3.29874      -11.50825
C         -5.89416        3.30938      -11.76403
C         -6.80251        3.24741      -10.71156
C         -6.34339        3.16512       -9.39781
C         -2.59511        3.92528       -6.31084
O         -3.14883        3.98384       -5.23363
C         -1.24028        4.46522       -6.67667
C         -0.65346        5.46857       -6.00702
C         -1.20271        6.10089       -4.78972
C         -0.86470        5.67420       -3.51239
C          0.03626        4.55198       -3.18381
O          0.53472        3.79319       -3.99229
S          0.25592        4.41897       -1.45566
C         -0.53556        5.95693       -1.21473
O         -0.23625        6.73646       -0.33104
C         -1.35902        6.31346       -2.37077
C         -2.41418        7.26146       -2.41017
C         -2.80221        7.62605       -3.69855
C         -2.12823        7.15772       -4.83756
C         -2.44064        7.95510       -6.02732
O         -1.80515        7.91768       -7.06633
S         -3.73434        9.08489       -5.71349
C         -3.93195        8.47909       -4.08351
O         -4.94055        8.63227       -3.42386
C         -3.04214        7.74542       -1.14885
C         -2.53882        8.85106       -0.53218
C         -2.73571        8.98651        0.91359
C         -2.18186        9.86362        1.79329
C         -1.55631       11.21550        1.50174
C         -2.18798       12.39690        2.29405
N         -3.59258       12.66925        1.96106
C         -0.00443       11.27360        1.55823
N          0.63712       11.07680        2.85107
C         -2.23738        9.13864        3.06937
C         -1.52447        9.28270        4.19291
C         -1.53968        8.29551        5.34286
C         -2.59290        7.20399        5.17625
C         -3.32572        7.05127        4.05336
C         -3.06688        7.94353        2.94719
C         -3.38773        7.87351        1.64690
C         -4.20608        6.95006        0.90338
C         -4.05924        6.92505       -0.43871
C         -1.70157        9.05668        6.64135
C         -0.81186        9.98298        7.04805
C         -1.05432       10.80615        8.22508
C         -0.59082       10.44880        9.49282
C          0.26657        9.29378        9.79617
O          0.79742        8.57203        8.97390
S          0.48440        9.09943       11.51458
C         -0.44242       10.53829       11.85745
O         -0.75272       10.86634       12.98728
C         -0.90966       11.20554       10.62885
C         -1.68405       12.38211       10.54997
C         -2.30281       12.58813        9.30773
C         -1.90720       11.90804        8.15970
C         -2.46263       12.52394        6.94770
O         -1.97736       12.42287        5.83646
S         -3.80965       13.56739        7.32826
C         -3.52369       13.36185        9.03839
O         -4.30930       13.70610        9.90522
C         -1.74847       13.34272       11.68554
C         -1.87613       14.68401       11.67242
C         -2.08096       15.57327       12.83285
C         -1.30373       15.63977       13.93435
C         -1.49317       16.63571       14.93506
N         -1.65796       17.45319       15.74227
C         -0.16380       14.80066       14.08812
N          0.78513       14.12733       14.16042
C         -3.14550       16.52402       12.41484
C         -3.23259       16.47541       11.01128
C         -2.22320       15.52985       10.48770
O         -1.78634       15.44083        9.36196
C         -4.25875       17.06817       10.29520
C         -5.24280       17.76046       11.01284
C         -5.12722       17.89745       12.42835
C         -4.07127       17.27223       13.12324
C         -6.10814       18.61968       13.12276
C         -7.20902       19.15674       12.45337
C         -7.34788       18.97639       11.08032
C         -6.36745       18.29000       10.36244
H         -5.21684        3.21922       -6.95989
H         -1.96206        3.48299      -10.75845
H         -3.83479        3.36383      -12.35130
H         -6.25574        3.38536      -12.78678
H         -7.87090        3.28095      -10.91067
H         -7.07187        3.13297       -8.58990
H          0.25112        5.94623       -6.37231
H         -1.75605        9.45815       -0.97228
H         -1.78910       11.43792        0.44903
H         -1.62778       13.31755        2.08525
H         -2.11601       12.22118        3.36852
H         -3.66185       13.04241        1.01619
H         -3.94228       13.39928        2.58224
H          0.30892       12.26240        1.20064
H          0.40335       10.54375        0.85110
H          0.26805       11.72817        3.54205
H          1.64094       11.21980        2.78855
H         -0.81852       10.08559        4.29133
H         -0.56418        7.78669        5.37329
H         -2.69567        6.48556        5.98524
H         -4.03486        6.24037        3.94344
H         -4.96626        6.37423        1.41838
H         -4.72437        6.31345       -1.04081
H         -2.60556        8.86325        7.21141
H          0.09208       10.19738        6.47967
H         -1.66946       12.87851       12.66604
H         -4.33563       16.91590        9.22211
H         -4.04379       17.32821       14.20761
H         -6.03359       18.75924       14.19954
H         -7.96706       19.70333       13.00901
H         -8.22215       19.36888       10.56661
H         -6.50296       18.15321        9.29115
