95

C         -8.95735        2.51349       -3.32680
C         -8.98227        1.18425       -3.59633
C        -10.16544        0.50940       -4.02433
N        -11.13153       -0.03524       -4.37026
C         -7.84901        0.34988       -3.36937
N         -6.92950       -0.32021       -3.15685
C        -10.13947        3.42553       -3.35018
C         -9.87635        4.48858       -2.47678
C        -10.73087        5.56004       -2.28579
C        -11.85749        5.64815       -3.10210
C        -12.14033        4.61500       -4.04123
C        -11.29402        3.47982       -4.12553
C        -13.22570        4.79495       -4.91661
C        -13.98593        5.96970       -4.88864
C        -13.70266        6.96750       -3.96077
C        -12.65554        6.79850       -3.05881
C         -8.49047        4.42929       -1.99087
O         -7.97694        5.19508       -1.20012
C         -7.83387        3.30626       -2.75122
C         -6.50644        3.24083       -3.01187
C         -5.41947        4.16967       -2.57013
C         -4.13411        3.72401       -2.24100
C         -3.48072        2.56512       -2.86218
O         -3.88067        2.02892       -3.88006
S         -1.93053        2.24418       -2.14118
C         -1.89867        3.83625       -1.41576
O         -0.88830        4.34009       -0.96418
C         -3.21066        4.50320       -1.50981
C         -3.48816        5.82635       -1.14726
C         -4.56949        6.37839       -1.87712
C         -5.50881        5.56338       -2.54972
C         -6.45923        6.33981       -3.36454
O         -7.20536        5.86692       -4.20438
S         -6.29923        8.04388       -3.08433
C         -4.76811        7.79712       -2.27341
O         -3.93011        8.67657       -2.28061
C         -2.71017        6.58213       -0.13950
O         -2.66975        7.92118       -0.38517
C         -1.96159        8.54064        0.57463
C         -1.50579        7.61551        1.47590
C         -2.08947        6.36526        1.10043
N         -2.02721        5.20448        1.82734
C         -1.94411        5.00769        3.23779
C         -2.44202        5.89435        4.19536
C         -3.52853        6.86813        4.02421
O         -4.43774        6.75586        3.22205
S         -3.47107        8.09232        5.26869
C         -2.24184        7.19262        6.12187
O         -1.51071        7.67332        6.97152
C         -2.04387        5.85709        5.54246
C         -1.39120        4.75499        6.11464
C         -0.99725        3.77562        5.17451
C         -1.23849        3.92286        3.79016
C         -0.73100        2.79442        3.00686
O         -0.87433        2.69958        1.79995
S          0.01670        1.58579        4.00726
C         -0.26250        2.52467        5.45448
O          0.14675        2.18218        6.54658
C         -1.10357        4.59491        7.56982
C         -1.74330        5.03134        8.67461
C         -1.22531        4.97883       10.05304
C         -0.85247        3.87679       10.74226
C         -0.53057        3.92466       12.12362
N         -0.26910        3.98228       13.26064
C         -0.91914        2.57448       10.15313
N         -1.02300        1.52286        9.69335
C         -1.49222        6.32019       10.62285
C         -2.52691        6.90116        9.87146
C         -2.88680        5.99988        8.74749
O         -3.85901        6.03750        8.02415
C         -2.95200        8.20410       10.06655
C         -2.28086        8.97850       11.02786
C         -1.22386        8.40477       11.79651
C         -0.84619        7.06351       11.59765
C         -0.53416        9.20652       12.71844
C         -0.85845       10.55427       12.87668
C         -1.88629       11.11620       12.12546
C         -2.59705       10.33326       11.21274
H        -10.45940        6.35784       -1.60087
H        -11.51527        2.71830       -4.86902
H        -13.46396        4.04208       -5.66557
H        -14.78996        6.11547       -5.60608
H        -14.28003        7.88888       -3.95206
H        -12.43521        7.59870       -2.35466
H         -6.15490        2.42366       -3.63797
H         -1.87903        9.61539        0.47635
H         -0.87303        7.86077        2.31455
H         -1.74674        4.36313        1.30411
H         -0.17065        4.06167        7.75654
H         -3.71881        8.63071        9.42643
H         -0.01022        6.65408       12.15820
H          0.28056        8.79415       13.31100
H         -0.30065       11.16742       13.58064
H         -2.12972       12.16948       12.24292
H         -3.38744       10.80101       10.62892
