118

C         -1.50484        2.23112       -5.83513
C         -0.75338        1.78248       -4.80694
C          0.59207        1.35380       -4.98705
N          1.69547        1.03188       -5.15262
C         -1.31089        1.59778       -3.50679
N         -1.76340        1.38607       -2.46350
C         -1.15756        2.14774       -7.26333
C         -2.34334        1.88516       -7.96687
C         -2.36306        1.66815       -9.32962
C         -1.15684        1.81667      -10.03056
C          0.03041        2.21304       -9.34355
C          0.02591        2.35807       -7.94814
C          1.19671        2.46774      -10.07610
C          1.21623        2.29627      -11.45948
C          0.07510        1.85431      -12.12394
C         -1.10491        1.62005      -11.41632
C         -3.51105        2.05593       -7.06596
O         -4.68117        1.89458       -7.33512
C         -2.91754        2.59547       -5.79760
C         -3.58105        3.55439       -5.13446
C         -2.94964        4.51905       -4.28576
S         -3.81752        5.13843       -2.93600
C         -2.51648        6.14729       -2.40103
C         -1.47831        6.07138       -3.31685
C         -1.72186        5.15074       -4.36675
O         -0.82910        4.91454       -5.36499
C          0.49201        5.31420       -4.96877
C          0.47944        6.71659       -4.37203
O         -0.31665        6.76813       -3.17893
C         -2.61859        6.87300       -1.15969
C         -1.98455        8.07306       -1.07516
C         -1.78781        8.69877        0.21440
C         -1.07067        9.79717        0.57099
C         -0.42306       10.88779       -0.26948
C          0.67331       10.37666       -1.24195
N          1.83432        9.79436       -0.57666
C         -1.44448       11.70776       -1.12088
N         -2.44138       12.45583       -0.35597
C         -0.91150        9.63770        2.02541
C         -0.00585       10.14301        2.87764
C          0.12568        9.63223        4.31766
C         -0.98446        8.67260        4.74067
C         -1.89415        8.18035        3.88552
C         -1.76952        8.55899        2.50765
C         -2.28016        7.98972        1.41308
C         -3.13198        6.84053        1.27601
C         -3.29018        6.32213        0.04487
C          0.21076       10.79596        5.25982
C          0.37042       10.70930        6.59147
C          0.37663       11.86973        7.41387
S         -0.59383       13.24697        7.02786
C         -0.10047       14.11897        8.42027
C          0.80346       13.38241        9.14526
C          1.05669       12.09644        8.59180
O          1.92939       11.19648        9.11678
C          2.35821       11.60071       10.42816
C          2.60227       13.11168       10.52153
O          1.40594       13.86021       10.26022
C         -0.57050       15.44853        8.57849
C         -1.77215       15.73859        9.09999
C         -2.52306       17.00452        8.99503
C         -2.01694       18.25664        9.10622
C         -2.84122       19.40915        9.09102
N         -3.52169       20.36041        9.07365
C         -0.62649       18.49739        9.30687
N          0.50829       18.70694        9.45711
C         -3.96117       16.61182        8.89996
C         -4.06936       15.26169        9.26718
C         -2.74620       14.71473        9.59954
O         -2.53190       13.69060       10.21154
C         -5.25315       14.54382        9.22498
C         -6.40585       15.20382        8.78869
C         -6.33825       16.58038        8.42740
C         -5.10641       17.27288        8.47684
C         -7.51318       17.22554        8.01033
C         -8.72375       16.53280        7.93313
C         -8.77837       15.18158        8.26182
C         -7.62657       14.52020        8.68765
H         -3.29896        1.44319       -9.83228
H          0.92885        2.66644       -7.42892
H          2.10212        2.80916       -9.57755
H          2.12572        2.50277      -12.01783
H          0.09974        1.70194      -13.19980
H         -1.98696        1.28787      -11.95977
H         -4.64024        3.70659       -5.34403
H          1.12970        5.27763       -5.85769
H          0.87452        4.58250       -4.24584
H          0.08318        7.44671       -5.08791
H          1.49753        7.01875       -4.10510
H         -1.45976        8.49560       -1.91891
H          0.05574       11.61185        0.40469
H          1.02655       11.21084       -1.86114
H          0.27065        9.64154       -1.94268
H          2.23585       10.47395        0.06644
H          2.55172        9.58842       -1.26970
H         -1.95723       11.05638       -1.83800
H         -0.89392       12.44945       -1.71479
H         -2.92948       11.82755        0.28357
H         -3.15376       12.81322       -0.99498
H          0.73593       10.85583        2.53486
H          1.07557        9.08232        4.37032
H         -1.02062        8.35069        5.77769
H         -2.66233        7.48647        4.20441
H         -3.61684        6.40879        2.14254
H         -3.91771        5.44523       -0.07619
H          0.14155       11.77519        4.79096
H          0.49632        9.74459        7.07900
H          3.28690       11.06393       10.64895
H          1.59717       11.27867       11.14853
H          3.36552       13.43050        9.80014
H          2.94683       13.37969       11.52429
H          0.04054       16.20510        8.09743
H         -5.26050       13.49078        9.49440
H         -5.07941       18.30750        8.14808
H         -7.49905       18.28018        7.74195
H         -9.62494       17.04946        7.61199
H         -9.71906       14.64100        8.18944
H         -7.69079       13.46248        8.93602
