140

C          3.39029        1.12784       -5.83615
C          3.51709       -0.12668       -6.35577
C          4.73851       -0.62386       -6.89926
N          5.74932       -1.02813       -7.33254
C          2.36203       -0.91166       -6.65447
N          1.45183       -1.51932       -7.03215
C          4.21161        2.20554       -6.41099
C          3.31862        3.18035       -6.88564
C          3.71613        4.13699       -7.79773
C          5.07171        4.15372       -8.18294
C          6.00509        3.26662       -7.56339
C          5.56588        2.29664       -6.66158
C          7.36220        3.32817       -7.89426
C          7.80999        4.22755       -8.85614
C          6.90139        5.06110       -9.50498
C          5.54344        5.02727       -9.17116
C          1.98075        2.97048       -6.26185
O          0.99080        3.65508       -6.40284
C          2.16046        1.76771       -5.36437
C          1.43839        1.60793       -4.23765
C          1.67442        0.68482       -3.12865
C          2.79101       -0.07798       -2.96318
C          2.54695       -1.07395       -1.96075
C          1.30337       -0.97433       -1.48505
O          0.87873       -1.64201       -0.35787
C          1.82910       -2.50608        0.17682
C          3.06493       -2.63674       -0.33608
O          3.49956       -1.91678       -1.44563
C          0.71207        0.21986       -2.08425
C         -0.35465        0.80768       -1.50968
C         -1.54245        0.05080       -1.14869
C         -2.50443        0.92754       -0.84894
O         -3.83796        0.59845       -0.78777
C         -4.10459       -0.72299       -1.14521
C         -3.13881       -1.59487       -1.48340
O         -1.79477       -1.25420       -1.50450
C         -1.97750        2.26920       -0.85800
C         -0.67944        2.24048       -1.26999
C          0.21094        3.38684       -1.01716
C          1.26091        3.22429       -0.16503
C          2.05320        4.36890        0.26067
C          3.02789        4.46962        1.20317
C          3.53632        3.35164        2.10038
C          5.04600        3.09228        1.88943
N          5.58096        1.91957        2.58833
C          3.04859        3.55836        3.55966
N          3.38109        2.50746        4.52531
C          3.38812        5.89977        1.22686
C          4.22245        6.61747        2.00319
C          4.34865        8.14537        1.89438
C          3.46608        8.75562        0.81115
C          2.64785        8.03692        0.02370
C          2.57565        6.61162        0.23297
C          1.76215        5.69709       -0.31191
C          0.65715        5.83904       -1.23195
C         -0.08553        4.75046       -1.52523
C          5.80580        8.55732        1.77493
C          6.40342        9.23365        0.77440
C          7.79457        9.63051        0.81014
C          8.17624       10.93315        0.74918
C          9.58581       11.01650        1.03679
C         10.07682        9.81281        1.36590
O         11.42007        9.51392        1.29580
C         12.21692       10.56340        0.85981
C         11.72338       11.77827        0.56948
O         10.37006       12.08526        0.67109
C          9.00640        8.84657        1.16889
C          9.18285        7.51674        1.14385
C         10.05956        6.76391        2.01361
C          9.73662        5.47279        1.88576
O         10.25347        4.47620        2.67457
C         11.13873        4.94145        3.64534
C         11.43578        6.24513        3.79847
O         10.87813        7.24335        3.00599
C          8.77112        5.29117        0.83319
C          8.46509        6.50956        0.32138
C          7.84765        6.63885       -0.98773
C          8.37395        7.25887       -2.06181
C          7.76604        7.45575       -3.38849
C          7.20235        6.49835       -4.16290
C          6.86251        6.74356       -5.52391
N          6.59973        7.00338       -6.62320
C          7.06752        5.15320       -3.71154
N          6.98130        4.05437       -3.34866
C          8.25200        8.76956       -3.88295
C          9.39797        9.10220       -3.14922
C          9.63975        8.07906       -2.10820
O         10.68536        7.89581       -1.52430
C         10.13399       10.25158       -3.39012
C          9.69190       11.12529       -4.39874
C          8.52348       10.80777       -5.14987
C          7.79956        9.63399       -4.86983
C          8.10660       11.67388       -6.17280
C          8.80877       12.84787       -6.44557
C          9.93343       13.17492       -5.69415
C         10.37465       12.31905       -4.68150
H          2.99141        4.82680       -8.22141
H          6.26775        1.59240       -6.22308
H          8.08180        2.66411       -7.41783
H          8.86708        4.27072       -9.10498
H          7.25393        5.75428      -10.26334
H          4.86077        5.69547       -9.69133
H          0.56677        2.25035       -4.10407
H          3.71339       -0.05845       -3.51219
H          1.44742       -3.03344        1.03849
H          3.83708       -3.28668        0.04639
H         -5.16211       -0.93862       -1.13764
H         -3.29333       -2.61960       -1.79252
H         -2.51726        3.11132       -0.45214
H          1.49365        2.25469        0.26079
H          3.04869        2.42322        1.77241
H          5.64627        3.96321        2.16695
H          5.22086        2.91773        0.82013
H          5.60577        2.10049        3.58915
H          4.96501        1.11945        2.45005
H          1.95194        3.60625        3.53898
H          3.38913        4.51571        3.96463
H          4.25576        2.72500        4.99742
H          3.49553        1.61073        4.05742
H          4.80178        6.14440        2.78889
H          3.98447        8.56122        2.84641
H          3.49282        9.83742        0.69983
H          2.03706        8.50960       -0.73537
H          0.39902        6.81792       -1.61849
H         -0.96304        4.85694       -2.15601
H          6.40768        8.29036        2.64525
H          5.84254        9.56418       -0.09468
H          7.54553       11.79389        0.59425
H         13.24850       10.25959        0.76531
H         12.30044       12.61550        0.20896
H         11.54298        4.13462        4.23724
H         12.11792        6.65340        4.52859
H          8.50214        4.32599        0.43284
H          6.87164        6.16166       -1.05484
H         11.02021       10.46294       -2.79841
H          6.89272        9.42753       -5.43153
H          7.23215       11.43753       -6.77702
H          8.47612       13.50623       -7.24467
H         10.47155       14.09731       -5.89948
H         11.25883       12.59688       -4.11154
