96

C          1.41999        6.25102       -4.00524
C          2.10525        7.18599       -3.30960
C          2.09914        8.55654       -3.70519
N          2.09479        9.66399       -4.04428
C          3.01578        6.80886       -2.27122
N          3.80586        6.49365       -1.48286
C          0.75350        6.42593       -5.30895
C          1.09301        5.30621       -6.08953
C          0.61181        5.10473       -7.36554
C         -0.39511        5.96500       -7.80993
C         -0.86236        7.02646       -6.97274
C         -0.23175        7.29479       -5.74029
C         -2.00451        7.73754       -7.36825
C         -2.65999        7.42814       -8.56275
C         -2.15594        6.44057       -9.40501
C         -1.02213        5.71999       -9.03596
C          1.70795        4.26353       -5.22868
O          2.11761        3.17384       -5.56338
C          1.53005        4.80806       -3.84174
C          1.08755        3.97690       -2.88287
C          0.36022        4.37779       -1.72621
C          0.39364        3.72238       -0.52328
S          1.36816        2.31025        0.04381
C          0.54507        2.52768        1.57809
C          0.90453        1.61813        2.70860
C         -0.39034        3.57061        1.62126
C         -0.49263        4.28568        0.39799
C         -1.24990        5.32974       -0.02076
S         -0.84584        5.61804       -1.67368
C         -2.22434        6.11748        0.68470
N         -3.28817        6.71946        0.04389
C         -4.02833        7.39123        0.97591
C         -5.18399        8.18869        1.12343
C         -5.24020        8.49522        2.47483
N         -4.18382        7.89359        3.12205
C         -3.44615        7.22178        2.18697
C         -2.29670        6.41054        2.04045
C         -6.20199        9.23514        3.20540
C         -5.91055        9.94507        4.30855
C         -6.90844       10.69712        4.98096
C         -6.93085       10.97545        6.32056
S         -5.77508       10.58600        7.65270
C         -6.87028       11.48863        8.68862
C         -6.48693       11.67929       10.12368
C         -8.03669       11.96287        8.06599
C         -8.08236       11.68469        6.67047
C         -8.97393       11.97872        5.68252
S         -8.21006       11.50712        4.20444
C        -10.20135       12.70363        5.72595
C        -11.28340       12.51839        4.94601
C        -12.48766       13.38060        4.86063
C        -13.10483       14.02450        5.88084
C        -14.32536       14.73143        5.71777
N        -15.31703       15.31063        5.58415
C        -12.61964       13.97549        7.21915
N        -12.20854       13.93465        8.30294
C        -13.02778       13.21483        3.47755
C        -12.42134       12.08809        2.90992
C        -11.44579       11.50696        3.84162
O        -10.97760       10.39315        3.74096
C        -12.71109       11.61867        1.63838
C        -13.66197       12.30996        0.88086
C        -14.28439       13.47094        1.42088
C        -13.94611       13.92431        2.71505
C        -15.24305       14.14483        0.64885
C        -15.58950       13.68691       -0.62353
C        -14.97495       12.55436       -1.15004
C        -14.01321       11.87200       -0.40457
H          0.91055        4.22620       -7.92904
H         -0.59539        8.09190       -5.09642
H         -2.42731        8.50835       -6.72666
H         -3.57261        7.95362       -8.83319
H         -2.66188        6.20872      -10.33886
H         -0.66052        4.93339       -9.69545
H          1.16199        2.90324       -3.06039
H          1.34557        0.67926        2.36011
H          0.01404        1.37038        3.29580
H          1.62280        2.11519        3.36860
H         -0.96169        3.79082        2.51446
H         -3.51782        6.68387       -0.94049
H         -5.88303        8.50413        0.36124
H         -3.96832        7.89866        4.11072
H         -1.61339        6.09774        2.81693
H         -7.21251        9.23105        2.79976
H         -4.90455        9.96374        4.71627
H         -5.48214       11.30268       10.34239
H         -7.19440       11.15995       10.77739
H         -6.50203       12.74517       10.37570
H         -8.79522       12.51442        8.61016
H        -10.19324       13.50908        6.45362
H        -12.20348       10.73733        1.25566
H        -14.41886       14.82862        3.08594
H        -15.74252       15.03102        1.03745
H        -16.34393       14.21370       -1.20318
H        -15.24724       12.19833       -2.14052
H        -13.54603       10.98823       -0.83513
