107

C         -2.08956        0.57767       -4.99191
C         -3.05175        1.13119       -5.76224
C         -4.37880        0.61877       -5.79924
N         -5.46214        0.20296       -5.81220
C         -2.73566        2.15692       -6.70072
N         -2.45816        2.95311       -7.50050
C         -2.16110       -0.71057       -4.27289
C         -0.89640       -1.31530       -4.38795
C         -0.59719       -2.54177       -3.83049
C         -1.56456       -3.13481       -3.01151
C         -2.82111       -2.48956       -2.79718
C         -3.13103       -1.29073       -3.47251
C         -3.71308       -3.04345       -1.86638
C         -3.38403       -4.20607       -1.16538
C         -2.17727       -4.85463       -1.41165
C         -1.27697       -4.32788       -2.33684
C          0.08209       -0.35049       -4.94988
O          1.25431       -0.53709       -5.18752
C         -0.67451        0.94422       -4.99135
C         -0.05002        2.05919       -4.56964
C         -0.66704        3.20368       -3.91469
C         -1.67518        3.05791       -3.01448
C         -1.88094        4.27183       -2.25896
C         -2.78062        4.39294       -1.17914
N         -3.49786        4.46894       -0.26685
C         -1.01224        5.20213       -2.67593
C         -0.24332        4.62728       -3.78921
C          0.60579        5.32630       -4.57053
C          0.87822        6.78069       -4.51739
C          1.83048        7.02269       -5.44563
C          2.16651        5.79793       -6.13794
C          1.43609        4.78700       -5.64444
C          3.05958        5.72977       -7.23313
N          3.78432        5.69359       -8.13696
C          0.17795        7.86874       -3.87242
C          0.80031        8.80569       -3.14195
C          0.14633        9.95447       -2.61157
S         -1.09710       10.78118       -3.46242
C         -1.04640       12.16104       -2.41824
C         -0.23755       11.87974       -1.32453
C          0.44765       10.62474       -1.44278
N          0.00962       12.78060       -0.23312
O          0.43156       13.90707       -0.51453
O         -0.15956       12.31880        0.90267
C         -1.70443       13.34406       -2.87151
C         -0.99793       14.21120       -3.63966
C         -1.83378       15.32329       -4.04187
C         -1.45394       16.32102       -4.97044
N         -1.15646       17.13597       -5.74069
C         -3.04774       15.19384       -3.48450
C         -3.04768       13.95592       -2.69876
C         -4.11308       13.51101       -2.00489
C         -5.32066       14.26770       -1.58302
C         -6.06525       13.39839       -0.86401
C         -5.46805       12.08013       -0.91109
C         -4.30759       12.13234       -1.57071
C         -6.10203       10.90800       -0.43316
N         -6.62580        9.93950       -0.05186
C         -5.66076       15.67651       -1.65512
C         -6.83650       16.12065       -2.13419
C         -7.17808       17.52867       -2.24754
C         -8.04120       18.07815       -3.12304
C         -8.37183       19.50921       -3.36446
C         -8.29183       20.53524       -2.48054
C         -8.71348       21.86254       -2.78932
N         -9.04604       22.94524       -3.03623
C         -7.82898       20.36903       -1.14156
N         -7.44673       20.23938       -0.05442
C         -8.97715       19.58149       -4.73365
C         -9.23313       18.27931       -5.17603
C         -8.70488       17.29242       -4.22650
O         -8.77106       16.08995       -4.37747
C         -9.84096       17.98160       -6.38882
C        -10.18412       19.03811       -7.23847
C         -9.88200       20.37196       -6.85237
C         -9.28021       20.63018       -5.59711
C        -10.18692       21.41631       -7.74118
C        -10.79004       21.15852       -8.97511
C        -11.10535       19.85309       -9.33775
C        -10.80367       18.79834       -8.47602
H          0.39293       -2.97019       -3.95458
H         -4.08691       -0.80239       -3.29882
H         -4.66245       -2.55714       -1.64924
H         -4.06895       -4.60289       -0.41964
H         -1.92585       -5.76223       -0.86824
H         -0.33226       -4.84280       -2.50052
H          1.04128        2.04308       -4.51281
H         -2.20618        2.15241       -2.76042
H         -0.87730        6.17402       -2.22809
H          2.21022        7.99361       -5.73415
H          1.45921        3.77311       -6.00507
H         -0.89642        7.90401       -4.04971
H          1.86905        8.71386       -2.95465
H          1.19333       10.27485       -0.73462
H          0.03273       14.10309       -3.95025
H         -3.90616       15.81029       -3.70262
H         -6.96474       13.63106       -0.31174
H         -3.72317       11.27869       -1.87771
H         -4.89179       16.37539       -1.33215
H         -7.57418       15.39720       -2.47945
H         -6.62668       18.15439       -1.55111
H        -10.01934       16.94616       -6.66717
H         -9.05106       21.66154       -5.34889
H         -9.95452       22.44793       -7.48308
H        -11.01470       21.97928       -9.65232
H        -11.58179       19.65419      -10.29531
H        -11.05399       17.78454       -8.78288
