122

C         -3.83488        6.25068       -0.78501
C         -3.19437        6.85384       -1.81246
C         -2.88667        6.16127       -3.01532
N         -2.63707        5.57946       -3.99001
C         -2.88572        8.24790       -1.77455
N         -2.65888        9.38395       -1.74573
C         -4.50887        4.94333       -0.84491
C         -5.72901        5.07363       -0.16490
C         -6.65119        4.04532       -0.09956
C         -6.27500        2.79468       -0.62006
C         -4.96773        2.61267       -1.16487
C         -4.10081        3.70810       -1.31222
C         -4.54793        1.32505       -1.52608
C         -5.41145        0.23624       -1.41045
C         -6.71466        0.42568       -0.95953
C         -7.14348        1.69462       -0.56313
C         -5.72885        6.35021        0.60241
O         -6.61793        6.79501        1.29469
C         -4.32436        6.88532        0.43469
C         -3.70613        7.42737        1.50358
C         -2.28013        7.49953        1.75314
S         -1.11968        6.71683        0.72790
C          0.26293        7.27956        1.57234
C         -0.13788        7.81144        2.77367
C         -1.58348        8.01797        2.84461
C         -2.20736        8.64797        3.93331
C         -1.27118        8.98500        4.94333
N         -1.78308        9.63903        6.13826
O         -2.40420       10.69715        5.97756
O         -1.55126        9.09033        7.22329
C          0.13993        8.74151        4.89331
C          0.77131        8.16117        3.77831
C          1.53779        7.09984        0.93975
C          1.96180        8.12817        0.15293
C          3.00426        7.88648       -0.83357
C          3.45868        8.66364       -1.86069
C          3.11714       10.12320       -2.16585
C          4.03695       11.14986       -1.43634
N          5.44807       11.12071       -1.83660
C          2.90145       10.56588       -3.64675
N          4.11279       10.76223       -4.44885
C          4.22298        7.71619       -2.68336
C          4.58909        7.75072       -3.97122
C          5.21791        6.59255       -4.70940
C          5.50983        5.39535       -3.81670
C          5.10244        5.31898       -2.53625
C          4.36974        6.43533       -1.99354
C          3.60336        6.53024       -0.89975
C          3.25595        5.53180        0.08235
C          2.26382        5.81282        0.94935
C          6.43800        6.98775       -5.50673
C          7.07471        8.17511       -5.51165
C          8.20036        8.44576       -6.35361
S          9.27160        7.16856       -6.82696
C         10.25733        8.18198       -7.80711
C          9.88257        9.49607       -7.65000
C          8.67629        9.64822       -6.85670
C          8.06068       10.88620       -6.61697
C          8.79617       11.94845       -7.19767
N          8.29760       13.30224       -6.98974
O          7.10837       13.51833       -7.25819
O          9.10264       14.13945       -6.55882
C         10.00372       11.80623       -7.95838
C         10.58870       10.55537       -8.23484
C         11.29164        7.56517       -8.56092
C         11.05947        6.96732       -9.74289
C         11.92326        6.05743      -10.50781
C         13.26907        6.17318      -10.67669
C         14.01484        5.29926      -11.48327
N         14.62206        4.57902      -12.16270
C         14.00709        7.23948      -10.07348
N         14.58136        8.10843       -9.57783
C         11.01302        5.08201      -11.18225
C          9.70473        5.57888      -11.06960
C          9.69728        6.86497      -10.36632
O          8.79098        7.67263      -10.36390
C          8.57838        4.88872      -11.48989
C          8.75626        3.63189      -12.06567
C         10.07272        3.11368      -12.24946
C         11.19497        3.84776      -11.79216
C         10.21732        1.86556      -12.87386
C          9.10007        1.12629      -13.27554
C          7.81803        1.61737      -13.04787
C          7.64739        2.86448      -12.44961
H         -7.60143        4.19094        0.40599
H         -3.10902        3.56997       -1.73499
H         -3.53436        1.15276       -1.88380
H         -5.06651       -0.75962       -1.67807
H         -7.39437       -0.42083       -0.89878
H         -8.16098        1.81124       -0.19548
H         -4.34788        7.71068        2.33860
H         -3.26540        8.85756        4.02552
H          0.75951        9.02506        5.74584
H          1.84014        7.98818        3.73769
H          1.41530        9.06388        0.10269
H          2.12675       10.28327       -1.71419
H          3.96885       11.01688       -0.35116
H          3.66281       12.16140       -1.64636
H          5.83067       10.19974       -1.61275
H          5.96951       11.78728       -1.26561
H          2.38450       11.53362       -3.62736
H          2.22946        9.86581       -4.15494
H          4.87385       11.05862       -3.82378
H          3.97890       11.49405       -5.14154
H          4.35306        8.58498       -4.60515
H          4.46964        6.26094       -5.44358
H          6.02284        4.54987       -4.26592
H          5.28278        4.43552       -1.93644
H          3.76075        4.57288        0.08484
H          1.95240        5.06751        1.67639
H          6.76865        6.19905       -6.17900
H          6.71983        8.98575       -4.87954
H          7.14704       11.03799       -6.05558
H         10.49435       12.69869       -8.35019
H         11.49252       10.45287       -8.82206
H         12.25208        7.49392       -8.06048
H          7.59123        5.31771      -11.33586
H         12.18098        3.40396      -11.90039
H         11.20658        1.44989      -13.05908
H          9.23019        0.16228      -13.76186
H          6.94861        1.03325      -13.34027
H          6.63670        3.23115      -12.27953
