136

C         -4.84836        5.98336      -11.34144
C         -5.72514        5.99930      -12.37989
C         -5.61722        5.11846      -13.49388
N         -5.53272        4.40085      -14.40273
C         -6.83139        6.90963      -12.45047
N         -7.72530        7.63896      -12.50751
C         -3.70393        5.01723      -11.16115
C         -3.03553        5.36767       -9.98657
C         -1.89162        4.76732       -9.49851
C         -1.43402        3.64006      -10.15119
C         -2.13027        3.15143      -11.29106
C         -3.24433        3.87572      -11.81372
C         -1.69685        1.92837      -11.83100
C         -0.61995        1.23012      -11.26585
C          0.07098        1.75396      -10.17672
C         -0.32996        2.96325       -9.62621
C         -3.77399        6.36135       -9.23419
O         -3.56078        6.58996       -8.06207
C         -4.83582        6.88520      -10.15104
C         -5.50388        8.01260       -9.84244
C         -5.38153        8.77230       -8.61083
C         -6.44045        8.88669       -7.77224
C         -6.03776        9.51516       -6.53122
C         -6.89960        9.77635       -5.44030
N         -7.60704        9.99066       -4.54462
C         -4.72726        9.79347       -6.58006
C         -4.21926        9.35594       -7.88681
C         -2.93519        9.46753       -8.29406
C         -1.76574        9.79414       -7.46004
C         -0.70681        9.91860       -8.28319
C         -1.12234        9.63392       -9.63763
C         -2.42511        9.30934       -9.65389
C         -0.26310        9.71673      -10.75291
N          0.44058        9.80597      -11.67245
C         -1.59976        9.85671       -6.04021
C         -1.95549        8.86516       -5.20492
C         -1.84442        8.91437       -3.75336
C         -1.46686       10.06850       -3.14887
C         -1.16276       10.09027       -1.74684
C         -0.61495       11.07742       -0.99399
C         -0.33414       12.53691       -1.34442
C          0.74637       12.70802       -2.45275
N          1.11106       14.10791       -2.70907
C         -1.66641       13.27725       -1.69590
N         -1.51725       14.71578       -1.96402
C         -0.26834       10.38760        0.25502
C          0.54418       10.73556        1.26356
C          0.93239        9.74192        2.35449
C          0.19208        8.40871        2.30033
C         -0.65207        8.08077        1.31018
C         -0.79932        9.02132        0.23757
C         -1.32567        8.84763       -0.97723
C         -1.92428        7.68920       -1.58996
C         -2.15750        7.73027       -2.91628
C          0.74404       10.34687        3.71309
C          1.70298       11.01141        4.37564
C          1.53005       11.44029        5.73607
C          1.31994       10.52705        6.71244
C          1.32092       11.17329        7.99963
C          1.11952       10.51087        9.22802
N          0.95974        9.97034       10.24813
C          1.55130       12.48472        7.83711
C          1.69351       12.75892        6.40347
C          1.90427       13.96490        5.82225
C          2.20398       15.27838        6.46043
C          2.37445       16.14978        5.44450
C          2.20201       15.50368        4.17303
C          1.89626       14.21406        4.36885
C          2.36531       16.21199        2.96142
N          2.54389       16.86784        2.02091
C          2.32455       15.70417        7.83523
C          2.56907       16.95622        8.25281
C          2.54997       17.34008        9.64112
C          1.50266       17.22748       10.47264
C          1.37066       17.71785       11.85665
C          2.36530       17.82010       12.77435
C          2.11894       18.22050       14.11114
N          1.92403       18.56069       15.20374
C          3.72708       17.48555       12.48910
N          4.83062       17.21412       12.26916
C         -0.09345       17.89138       12.09946
C         -0.78992       17.26621       11.05868
C          0.13434       16.76677       10.04213
O         -0.20978       16.13745        9.06485
C         -2.17089       17.20823       10.96374
C         -2.91646       17.84940       11.94951
C         -2.24856       18.53579       13.00337
C         -0.83538       18.54802       13.07030
C         -3.02226       19.20561       13.96164
C         -4.41710       19.19844       13.88800
C         -5.06291       18.51622       12.86082
C         -4.31691       17.84312       11.89534
H         -1.42854        5.14057       -8.58960
H         -3.74082        3.47300      -12.69138
H         -2.21338        1.48514      -12.67977
H         -0.32066        0.26777      -11.67351
H          0.90883        1.21630       -9.74042
H          0.20461        3.35791       -8.76388
H         -6.25920        8.43194      -10.49864
H         -7.43720        8.50380       -7.93854
H         -4.17388       10.28926       -5.80059
H          0.31471       10.10921       -7.98322
H         -2.99688        9.06005      -10.52919
H         -1.15282       10.78169       -5.69404
H         -2.36081        7.93855       -5.61507
H         -1.25737       10.97246       -3.69522
H          0.05659       13.02580       -0.44157
H          0.40169       12.28748       -3.40124
H          1.65823       12.17317       -2.16974
H          0.24287       14.60978       -2.94978
H          1.69255       14.17288       -3.54274
H         -2.37152       13.15990       -0.86487
H         -2.13632       12.83469       -2.58054
H         -0.81132       15.10314       -1.33106
H         -2.38716       15.19983       -1.74202
H          1.04020       11.69977        1.26674
H          1.99615        9.50492        2.20997
H          0.37186        7.69279        3.09841
H         -1.17050        7.12950        1.28549
H         -2.16617        6.81711       -0.99441
H         -2.59941        6.86775       -3.40834
H         -0.22529       10.18657        4.18399
H          2.67224       11.20165        3.92001
H          1.22080        9.45888        6.58125
H          1.56230       13.17711        8.65535
H          2.59736       17.20351        5.51557
H          1.66782       13.50423        3.59253
H          2.13620       14.97249        8.60325
H          2.78891       17.76704        7.56609
H          3.46948       17.83430        9.94217
H         -2.63975       16.70257       10.12387
H         -0.36014       19.10107       13.87441
H         -2.54467       19.74766       14.77544
H         -5.00105       19.72801       14.63667
H         -6.14867       18.51091       12.80709
H         -4.83916       17.32014       11.09631
