119

C         -4.57513        4.91121       -8.05575
C         -5.27261        5.85915       -7.39057
C         -6.22828        6.68957       -8.04034
N         -6.96933        7.38619       -8.59746
C         -5.12394        6.04075       -5.98398
N         -5.02549        6.16705       -4.83437
C         -4.80873        4.41635       -9.42866
C         -4.39066        3.07378       -9.47505
C         -4.46457        2.30304      -10.61947
C         -4.88790        2.92838      -11.79935
C         -5.23144        4.31384      -11.79291
C         -5.21438        5.04691      -10.59228
C         -5.54983        4.94346      -13.00387
C         -5.54399        4.22755      -14.20123
C         -5.24405        2.86812      -14.20118
C         -4.92269        2.22058      -13.00768
C         -3.67662        2.71898       -8.22506
O         -3.19066        1.65051       -7.92687
C         -3.55288        4.02400       -7.50031
C         -2.36622        4.31903       -6.92918
C         -1.82718        5.64996       -6.72254
C         -2.02961        6.65738       -7.61181
C         -1.29556        7.84025       -7.24306
C         -1.33062        9.05619       -7.96431
N         -1.38834       10.04074       -8.57532
C         -0.55936        7.56964       -6.15953
C         -0.84203        6.18450       -5.74133
C         -0.27655        5.57859       -4.67205
C          0.62746        6.20321       -3.68277
C          1.11144        5.21917       -2.90285
C          0.48032        3.97089       -3.26410
C         -0.37678        4.17248       -4.27982
C          0.69887        2.76967       -2.55091
N          0.89923        1.80689       -1.93543
C          0.89940        7.57519       -3.36937
C         -0.07719        8.45093       -3.07876
C          0.18814        9.83261       -2.86598
S          1.53327       10.57970       -3.65073
C          1.20905       12.13785       -3.01329
C          0.10454       12.08429       -2.18740
C         -0.52261       10.78390       -2.15988
C         -1.72600       10.52373       -1.48145
C         -2.27651       11.66921       -0.85950
O         -3.47677       11.45258       -0.21934
C         -4.34647       12.58357       -0.17167
C         -1.63170       12.93699       -0.85562
C         -0.41977       13.19051       -1.51679
C          2.03700       13.18119       -3.49969
C          2.42510       14.23227       -2.76752
C          3.16673       15.30009       -3.37798
C          4.40086       15.08611       -3.89113
C          4.83406       16.25006       -4.62315
C          6.06920       16.34560       -5.30662
N          7.10181       16.40021       -5.83529
C          3.88065       17.19043       -4.55234
C          2.75985       16.67281       -3.77733
C          1.61948       17.34462       -3.49633
C          1.20316       18.71281       -3.88704
C         -0.01287       18.92525       -3.33388
C         -0.43442       17.75638       -2.60111
C          0.52505       16.82748       -2.68238
C         -1.66366       17.62695       -1.90728
N         -2.66311       17.50474       -1.33304
C          1.81076       19.75841       -4.66785
C          2.14538       19.64331       -5.96164
C          2.65803       20.76779       -6.70774
C          3.85376       20.85219       -7.31093
C          4.48496       22.01616       -7.95888
C          3.84957       22.96891       -8.68894
C          4.54972       23.99929       -9.37594
N          5.12178       24.84326       -9.92727
C          2.43602       22.96683       -8.87770
N          1.28024       22.95890       -9.01489
C          5.95907       21.82132       -7.82132
C          6.18897       20.50410       -7.40055
C          4.91590       19.79938       -7.21339
O          4.78212       18.60628       -7.05949
C          7.44939       19.97883       -7.15511
C          8.55458       20.81587       -7.33667
C          8.35909       22.16050       -7.75616
C          7.05198       22.65798       -7.98918
C          9.48039       22.98325       -7.93122
C         10.76918       22.49855       -7.69636
C         10.95584       21.18349       -7.27995
C          9.85595       20.34603       -7.09972
H         -4.12877        1.27004      -10.60539
H         -5.45678        6.10605      -10.60923
H         -5.78622        6.00581      -13.03199
H         -5.77126        4.73406      -15.13613
H         -5.24616        2.31204      -15.13534
H         -4.67880        1.16046      -13.03533
H         -1.65825        3.50723       -6.77403
H         -2.59861        6.62520       -8.52897
H          0.13906        8.26093       -5.72186
H          1.76736        5.34536       -2.05241
H         -1.01322        3.41866       -4.70746
H          1.95006        7.85535       -3.38095
H         -1.11381        8.12197       -3.04132
H         -2.22835        9.56637       -1.44550
H         -3.97698       13.34643        0.52131
H         -5.31463       12.24550        0.20757
H         -4.50312       13.00512       -1.17134
H         -2.06666       13.77605       -0.31714
H          0.02285       14.16305       -1.46798
H          2.36162       13.10852       -4.53858
H          2.18925       14.33948       -1.71521
H          4.96770       14.16684       -3.83750
H          3.93926       18.15740       -5.00164
H         -0.60936       19.82260       -3.41973
H          0.48877       15.87261       -2.21389
H          1.92803       20.71123       -4.15301
H          2.02442       18.69965       -6.49259
H          1.98267       21.61993       -6.68676
H          7.56145       18.95395       -6.81656
H          6.94109       23.69646       -8.27436
H          9.36365       24.01562       -8.25606
H         11.62706       23.15088       -7.83961
H         11.95928       20.80746       -7.09639
H         10.02226       19.32064       -6.77065
