106

C          3.17989        0.24720       -1.35138
C          4.40773       -0.05436       -1.83565
C          5.03889       -1.30345       -1.56613
N          5.53999       -2.32359       -1.34988
C          5.16771        0.88069       -2.59070
N          5.75525        1.66562       -3.22170
C          2.33028       -0.58861       -0.45998
C          1.47265        0.26637        0.24803
C          0.48613       -0.16559        1.11406
C          0.26190       -1.53693        1.19664
C          1.07159       -2.43896        0.44299
C          2.13257       -1.95670       -0.35737
C          0.74979       -3.80204        0.46737
C         -0.34307       -4.26490        1.20510
C         -1.11527       -3.37917        1.95250
C         -0.80861       -2.02116        1.95700
C          1.59142        1.64082       -0.25332
O          1.02893        2.61182        0.20390
C          2.47277        1.53504       -1.46582
C          2.34723        2.30552       -2.55954
C          1.34202        3.31956       -2.77554
C          0.02410        3.00611       -2.77567
C         -0.76964        4.17279       -3.08206
C         -2.17604        4.16051       -3.22879
N         -3.32935        4.13460       -3.36344
C          0.04268        5.22371       -3.27598
C          1.42483        4.77400       -3.06532
C          2.52662        5.55520       -3.10305
C          2.60597        7.03333       -3.20987
C          3.92321        7.34010       -3.17566
C          4.71724        6.13974       -3.10285
C          3.90811        5.07449       -3.05168
C          6.12998        6.12918       -3.06473
N          7.28828        6.14776       -3.02174
C          1.59579        8.06440       -3.12856
C          1.75951        9.29012       -3.65231
C          0.75600       10.28486       -3.53494
N         -0.41761       10.14953       -2.94190
C         -1.05716       11.34924       -2.95730
C         -0.42425       12.39513       -3.55553
S          1.06992       11.85578       -4.23527
N         -1.02194       13.61672       -3.49411
C         -2.14797       13.51724       -2.80712
S         -2.57368       11.88595       -2.31679
C         -3.01952       14.58953       -2.45667
C         -4.00179       14.97877       -3.30699
C         -4.81768       16.00408       -2.69037
C         -5.90557       16.65168       -3.32667
N         -6.79386       17.17108       -3.85865
C         -4.37241       16.24210       -1.44862
C         -3.21614       15.36936       -1.20127
C         -2.52560       15.32933       -0.03852
C         -2.89510       15.96662        1.25218
C         -1.92665       15.64336        2.13677
C         -0.91796       14.83583        1.48858
C         -1.25897       14.63611        0.20460
C          0.24388       14.34758        2.13457
N          1.19615       13.94567        2.66054
C         -4.08281       16.66985        1.67327
C         -4.93930       16.17471        2.57941
C         -6.10199       16.90801        3.02361
C         -6.35718       17.26970        4.29096
C         -7.52638       17.96981        4.87469
C         -8.41585       18.76534        4.22739
C         -9.45801       19.46603        4.89646
N        -10.31349       20.03769        5.43597
C         -8.34989       19.02177        2.82702
N         -8.29344       19.23231        1.68650
C         -7.44088       17.77182        6.35622
C         -6.19725       17.20345        6.65839
C         -5.45262       16.89342        5.43383
O         -4.34210       16.40414        5.40094
C         -5.76571       16.92697        7.94701
C         -6.63199       17.20421        9.00697
C         -7.92217       17.73864        8.73838
C         -8.31592       18.01524        7.40884
C         -8.78952       17.98028        9.81516
C         -8.39504       17.71164       11.12777
C         -7.12670       17.20011       11.38555
C         -6.24965       16.94643       10.33141
H         -0.15097        0.55533        1.61907
H          2.71349       -2.65981       -0.94853
H          1.32704       -4.51687       -0.11560
H         -0.59860       -5.32126        1.18796
H         -1.96833       -3.74211        2.52023
H         -1.43520       -1.34068        2.53127
H          2.91388        2.08180       -3.46051
H         -0.40484        2.02977       -2.59848
H         -0.28515        6.19784       -3.59620
H          4.35805        8.32982       -3.14287
H          4.24847        4.05603       -3.01607
H          0.68227        7.82217       -2.58934
H          2.67828        9.55495       -4.16532
H         -4.22580       14.58519       -4.28871
H         -4.77232       16.99425       -0.79172
H         -1.91046       15.90428        3.18783
H         -0.65626       14.10422       -0.51148
H         -4.23863       17.65681        1.24557
H         -4.76609       15.20081        3.03693
H         -6.78927       17.12441        2.21233
H         -4.78324       16.49170        8.10972
H         -9.31580       18.40427        7.24647
H         -9.78626       18.38267        9.64324
H         -9.07979       17.90376       11.95029
H         -6.81960       16.99499       12.40819
H         -5.26389       16.54260       10.55451
