111

C          9.19526        6.94688       -4.15132
C         10.40629        6.78311       -4.72976
C         11.36774        5.86639       -4.22071
N         12.14789        5.11680       -3.80143
C         10.82339        7.57511       -5.83972
N         11.13774        8.21615       -6.75502
C          8.68954        6.27792       -2.92650
C          7.75358        7.12968       -2.32069
C          7.02909        6.79061       -1.19349
C          7.14783        5.48220       -0.71959
C          8.03052        4.56455       -1.36417
C          8.83464        4.98620       -2.44457
C          8.03207        3.22611       -0.94567
C          7.18217        2.79611        0.07604
C          6.34694        3.70335        0.72192
C          6.33913        5.04249        0.33553
C          7.47153        8.27937       -3.19892
O          6.76781        9.22924       -2.93469
C          8.18020        7.95684       -4.48623
C          7.73824        8.28760       -5.70975
C          6.55907        9.05563       -6.01756
C          6.65459       10.23496       -6.67374
C          5.36054       10.87173       -6.73196
C          5.08585       12.09920       -7.37908
N          4.84231       13.09631       -7.92032
C          4.45963       10.10586       -6.09926
C          5.12618        8.87948       -5.65537
C          4.51610        7.79827       -5.11595
C          3.14328        7.68114       -4.57945
C          2.95593        6.38818       -4.24328
C          4.14280        5.62816       -4.55010
C          5.09343        6.45209       -5.01918
C          4.22214        4.22373       -4.40739
N          4.25580        3.06814       -4.31027
C          2.18560        8.65526       -4.14480
C          1.44603        9.43730       -4.94258
C          0.57306       10.41111       -4.40810
S          0.26841       10.63527       -2.73432
C         -0.82332       11.93272       -2.98247
C         -0.90900       12.17412       -4.32377
C         -0.14769       11.31758       -5.12643
S         -0.37604       11.68765       -6.88176
C         -1.49034       12.94757       -6.25850
N         -1.68911       13.11153       -4.94413
C         -1.41377       12.49174       -1.83191
C         -1.67248       13.79708       -1.74383
C         -2.31168       14.36087       -0.59284
C         -3.52155       14.93693       -0.76374
C         -4.00868       15.44766        0.49022
C         -5.20932       16.18437        0.59766
N         -6.20795       16.77349        0.63126
C         -3.12072       15.17223        1.45876
C         -2.02350       14.38591        0.86746
C         -1.01739       13.81597        1.57626
C         -0.92389       13.69450        3.05770
C          0.22906       13.03838        3.32159
C          0.92588       12.74511        2.08942
C          0.20383       13.19769        1.04977
C          2.18303       12.08670        2.01397
N          3.20227       11.54240        1.95121
C         -1.88777       13.98034        4.09830
C         -1.60118       14.68528        5.20357
C         -2.57745       14.96170        6.23838
C         -2.31045       15.25363        7.52284
C         -3.24065       15.49083        8.65187
C         -4.46607       16.06942        8.57426
C         -5.24366       16.37455        9.72840
N         -5.87947       16.60351       10.66283
C         -5.03051       16.49985        7.33707
N         -5.47858       16.82754        6.31767
C         -2.48186       15.16748        9.90374
C         -1.13154       15.02053        9.56397
C         -0.93339       15.15042        8.11578
O          0.14218       15.13829        7.56019
C         -0.12797       14.72861       10.47376
C         -0.48055       14.55321       11.81161
C         -1.84342       14.67807       12.20244
C         -2.83804       14.98182       11.23625
C         -2.16567       14.48905       13.55655
C         -1.17768       14.18139       14.49740
C          0.15136       14.05603       14.10351
C          0.49855       14.24217       12.76697
H          6.31552        7.49260       -0.77061
H          9.48152        4.26697       -2.94030
H          8.66627        2.49123       -1.43803
H          7.16333        1.74664        0.36000
H          5.68413        3.36488        1.51442
H          5.66585        5.73147        0.84220
H          8.24240        7.91807       -6.59973
H          7.55794       10.69096       -7.05260
H          3.42024       10.35110       -6.05009
H          2.08711        5.97673       -3.74603
H          6.06226        6.14355       -5.36951
H          2.08120        8.68688       -3.06007
H          1.54041        9.35581       -6.02199
H         -1.99828       13.56696       -6.98731
H         -1.61929       11.83746       -0.98855
H         -1.50982       14.46424       -2.59084
H         -4.06224       15.02325       -1.69745
H         -3.16813       15.53705        2.47043
H          0.57649       12.72749        4.29883
H          0.51851       13.16256        0.01853
H         -2.88219       13.56337        3.94951
H         -0.59968       15.09416        5.32999
H         -3.60678       14.89057        5.89500
H          0.89924       14.62594       10.13392
H         -3.87058       15.04699       11.56849
H         -3.19556       14.58064       13.89743
H         -1.44630       14.03848       15.54145
H          0.91848       13.81291       14.83489
H          1.54274       14.13851       12.47717
