116

C          0.02527        0.65941        2.16028
C          0.11577        1.04859        3.45744
C          0.17958        0.12111        4.54197
N          0.22770       -0.62274        5.42714
C          0.10673        2.41578        3.86111
N          0.09850        3.52885        4.19407
C         -0.03627       -0.76479        1.67556
C         -0.43810       -0.74502        0.33903
C         -0.65901       -1.86426       -0.44155
C         -0.34133       -3.09864        0.09956
C          0.17331       -3.17970        1.42301
C          0.28120       -2.00441        2.22087
C          0.60745       -4.43796        1.87404
C          0.53983       -5.56359        1.04303
C         -0.00658       -5.46739       -0.23389
C         -0.46090       -4.23967       -0.69870
C         -0.44140        0.60547       -0.19699
O         -0.52790        0.85481       -1.38214
C         -0.17143        1.52190        0.95747
C         -0.08880        2.84784        0.75711
C         -0.37335        3.57646       -0.47150
C         -1.56575        3.50963       -1.11853
C         -1.67321        4.57070       -2.10191
C         -2.75015        4.72250       -3.01454
N         -3.62535        4.85732       -3.75750
C         -0.59723        5.36613       -2.01283
C          0.29862        4.77116       -1.01650
C          1.54525        5.20517       -0.75733
C          2.05077        6.56857       -0.96559
C          3.36915        6.52982       -0.67931
C          3.75504        5.17444       -0.33434
C          2.66858        4.38442       -0.32105
C          5.09086        4.78339       -0.08486
N          6.19304        4.47805        0.11060
C          1.30427        7.80038       -1.02737
C          1.62944        8.83180       -1.81409
C          0.85582       10.01969       -1.85096
S          0.77175       10.88018       -3.35263
C          0.11136       10.69735       -0.91781
C         -0.24773       10.55050        0.47538
O          0.04655        9.62997        1.21840
N         -1.01446       11.66359        0.76470
C         -1.60948       11.92301        2.04974
C         -1.20216       12.50508       -0.31338
O         -1.84069       13.54378       -0.34308
C         -0.47390       11.88946       -1.39684
C         -0.23217       12.14382       -2.72077
C         -0.62089       13.17713       -3.61034
C         -0.89325       14.41976       -3.18664
C         -1.25889       15.51629       -4.05173
C         -1.98168       15.31015       -5.17715
C         -2.29416       16.56407       -5.81215
C         -2.94621       16.65348       -7.06348
N         -3.48352       16.69344       -8.09123
C         -1.82216       17.57537       -5.06585
C         -1.17839       17.00128       -3.87571
C         -0.61183       17.69670       -2.85987
C         -0.66366       19.15911       -2.55039
C          0.10001       19.31874       -1.44241
C          0.63701       18.06626       -0.99119
C          0.22698       17.09529       -1.81240
C          1.46222       17.93641        0.14762
N          2.13699       17.84951        1.08861
C         -1.42694       20.27136       -3.10198
C         -1.43942       21.50100       -2.55723
C         -2.22543       22.62006       -3.01627
C         -2.61650       23.64970       -2.24443
C         -3.44531       24.81816       -2.60777
C         -3.49420       25.43042       -3.81995
C         -4.25002       26.60862       -4.06087
N         -4.87556       27.56742       -4.25998
C         -2.74424       24.96692       -4.94194
N         -2.13066       24.58608       -5.85138
C         -4.04578       25.32338       -1.33995
C         -3.40921       24.70404       -0.26304
C         -2.46300       23.68293       -0.74100
O         -1.76356       23.00103       -0.02285
C         -3.70224       24.96719        1.06816
C         -4.72539       25.87953        1.34830
C         -5.42941       26.49441        0.27484
C         -5.08034       26.21175       -1.06490
C         -6.48037       27.37474        0.56893
C         -6.83467       27.65148        1.89042
C         -6.13572       27.06070        2.93881
C         -5.08561       26.18174        2.67037
H         -0.99253       -1.75168       -1.46970
H          0.67346       -2.10782        3.22815
H          1.04192       -4.55042        2.86525
H          0.92498       -6.51964        1.38878
H         -0.05943       -6.34029       -0.87954
H         -0.87250       -4.17267       -1.70422
H          0.19049        3.52584        1.55947
H         -2.37517        2.82571       -0.90279
H         -0.36709        6.19636       -2.66371
H          4.02512        7.38314       -0.57433
H          2.65722        3.31531       -0.17990
H          0.42725        7.82952       -0.38394
H          2.47728        8.74657       -2.49132
H         -1.28981       11.18530        2.78872
H         -2.69786       11.89170        1.94065
H         -1.32702       12.92845        2.37642
H         -0.65538       12.93726       -4.67108
H         -0.84566       14.65246       -2.13238
H         -2.31003       14.35637       -5.56719
H         -1.83684       18.60815       -5.36105
H          0.28448       20.22576       -0.88552
H          0.53483       16.07113       -1.71533
H         -2.07902       20.07558       -3.94313
H         -0.82913       21.71697       -1.68687
H         -2.49307       22.56442       -4.06715
H         -3.16526       24.45183        1.86037
H         -5.65294       26.68263       -1.85620
H         -7.04116       27.85344       -0.23189
H         -7.65857       28.32948        2.10009
H         -6.41172       27.28016        3.96744
H         -4.55619       25.72825        3.50627
