114

C         -0.43690        4.71501        8.05943
C         -0.50706        3.95876        6.94023
C         -1.47942        2.93230        6.77965
N         -2.28961        2.11062        6.65625
C          0.44223        4.10112        5.88383
N          1.23575        4.19108        5.04163
C         -1.17837        4.52065        9.32156
C         -0.37652        5.00673       10.36813
C         -0.76742        4.95955       11.69313
C         -2.04885        4.46732       11.98031
C         -2.91260        4.05861       10.92069
C         -2.46222        4.07722        9.58919
C         -4.22097        3.65501       11.22112
C         -4.66919        3.62048       12.54144
C         -3.81390        3.98162       13.57862
C         -2.51358        4.40656       13.30076
C          0.80362        5.71675        9.81836
O          1.70450        6.23943       10.43758
C          0.54598        5.76435        8.34292
C          0.84669        6.90124        7.68966
C          0.15840        7.34054        6.51423
S         -1.57550        7.17582        6.40049
C         -1.54114        7.74637        4.78689
C         -0.32505        8.24125        4.44466
C          0.67244        8.05013        5.43840
N         -0.42400        8.78536        3.18904
C         -1.68828        8.54044        2.70886
C         -2.41192        7.87183        3.67922
C         -2.02166        8.94870        1.38502
C         -3.33328        9.22081        1.15371
C         -3.80343        9.39359       -0.20152
C         -5.05822        9.54405       -0.70369
C         -6.40590        9.84056       -0.06003
C         -7.14156        8.52482        0.29860
N         -8.49219        8.72677        0.83333
C         -6.28439       10.83419        1.13719
N         -7.55480       11.22588        1.76647
C         -4.88603        9.26181       -2.13133
C         -5.78086        8.90883       -3.06306
C         -5.34873        8.44972       -4.45062
C         -3.85304        8.56997       -4.72134
C         -2.96395        8.92619       -3.78220
C         -3.47054        9.16296       -2.46270
C         -2.82451        9.22863       -1.29697
C         -1.42108        9.09948       -1.01465
C         -1.05047        8.96724        0.27082
C         -6.09640        9.13112       -5.55485
C         -6.96570       10.14766       -5.44551
C         -7.67478       10.68170       -6.55792
S         -7.35124       10.16584       -8.18124
C         -8.61154       11.16380       -8.76557
C         -9.21134       11.88118       -7.78395
C         -8.67621       11.63993       -6.49565
N        -10.19845       12.64501       -8.35157
C        -10.25848       12.34563       -9.69335
C         -9.23598       11.47015       -9.99496
C        -11.27382       12.97208      -10.44844
C        -11.84765       12.44430      -11.54403
C        -12.80318       13.10120      -12.46300
C        -13.77545       13.98103      -12.12264
C        -14.70903       14.48643      -13.06084
N        -15.47536       14.91236      -13.83110
C        -13.98093       14.41921      -10.78007
N        -14.13162       14.77845       -9.68936
C        -12.61236       12.45402      -13.79468
C        -11.83549       11.30442      -13.60798
C        -11.48425       11.14125      -12.19782
O        -11.06235       10.11086      -11.71934
C        -11.42376       10.46739      -14.63193
C        -11.81465       10.78821      -15.93096
C        -12.62226       11.93857      -16.16382
C        -13.00615       12.77110      -15.08705
C        -13.01790       12.22279      -17.47799
C        -12.61910       11.40634      -18.53907
C        -11.81245       10.29549      -18.30536
C        -11.41279        9.98731      -17.00656
H         -0.11373        5.34645       12.46917
H         -3.13856        3.78926        8.78897
H         -4.90873        3.36865       10.42737
H         -5.68764        3.30834       12.75939
H         -4.16223        3.94161       14.60760
H         -1.86842        4.69632       14.12744
H          1.54550        7.60830        8.13509
H          1.70596        8.35974        5.34774
H          0.33785        9.26195        2.72395
H         -3.43095        7.51572        3.60737
H         -4.06717        9.15354        1.94417
H         -7.01522       10.36690       -0.81109
H         -6.55110        7.95747        1.02592
H         -7.24590        7.89795       -0.59373
H         -8.45454        9.54523        1.46103
H         -8.73629        7.94349        1.43722
H         -5.78068       11.74794        0.79945
H         -5.67967       10.40544        1.93587
H         -8.13033       11.72417        1.08587
H         -7.36331       11.89035        2.51745
H         -6.83762        8.84793       -2.82332
H         -5.59600        7.38106       -4.51490
H         -3.49621        8.32931       -5.71949
H         -1.90312        8.98820       -3.99046
H         -0.69929        9.07725       -1.82133
H         -0.00078        8.81821        0.49770
H         -5.88017        8.69428       -6.52729
H         -7.18551       10.58103       -4.47364
H         -9.01626       12.10535       -5.57903
H        -10.79085       13.27083       -7.81906
H         -8.97303       11.04678      -10.95379
H        -11.54825       13.96703      -10.11084
H        -10.80228        9.60485      -14.41168
H        -13.59271       13.66008      -15.30382
H        -13.64775       13.08454      -17.69175
H        -12.93795       11.63854      -19.55234
H        -11.49665        9.66582      -19.13314
H        -10.78250        9.11511      -16.84286
