126

C         -9.60459        1.80740        1.70985
C        -10.88045        1.65366        2.13248
C        -11.85138        0.94564        1.37662
N        -12.64672        0.36987        0.74859
C        -11.29588        2.13031        3.41493
N        -11.60459        2.52548        4.45423
C         -8.98436        1.23079        0.48293
C         -7.60898        1.11771        0.73006
C         -6.68523        0.68427       -0.20085
C         -7.14566        0.40029       -1.48151
C         -8.53676        0.50989       -1.78199
C         -9.45918        0.90748       -0.78163
C         -8.94946        0.25291       -3.09717
C         -8.01841       -0.07521       -4.08814
C         -6.66338       -0.17488       -3.78113
C         -6.22988        0.05091       -2.47906
C         -7.27406        1.64367        2.05784
O         -6.27011        1.38593        2.68417
C         -8.49006        2.40907        2.47933
C         -8.50405        3.59195        3.12289
C         -7.33486        4.35126        3.43084
C         -6.48023        4.37895        4.51204
C         -5.36247        5.28483        4.33775
C         -4.29992        5.38721        5.25195
C         -4.41317        4.47187        6.31701
C         -5.53973        3.61575        6.50500
C         -6.65244        3.57129        5.63826
C         -5.47786        6.07638        3.20697
S         -6.87055        5.57721        2.30894
C         -4.63804        7.15195        2.77776
C         -4.86489        7.92371        1.70413
C         -3.97647        9.00109        1.27660
C         -4.50535       10.01550        0.54229
C         -3.61497       10.86043       -0.22909
C         -3.87965       11.80042       -1.17042
C         -5.06593       12.71031       -1.41156
C         -6.16333       12.08832       -2.30281
N         -6.77139       10.86781       -1.77299
C         -5.67785       13.30229       -0.10460
N         -4.74296       14.14172        0.66027
C         -2.68905       11.74189       -2.01943
C         -2.58046       11.86119       -3.35196
C         -1.30627       11.45083       -4.08867
C         -0.13469       11.11212       -3.16710
C         -0.27378       10.95166       -1.83893
C         -1.60115       11.08115       -1.31298
C         -2.17309       10.53234       -0.23740
C         -1.63588        9.69369        0.79505
C         -2.51185        8.96248        1.50642
C         -0.91706       12.54252       -5.04008
C         -1.30483       12.57730       -6.32459
C         -0.96981       13.69452       -7.13294
C          0.09671       13.91103       -7.97723
C          0.04141       15.19239       -8.64634
C          1.03284       15.62043       -9.54361
C          2.05791       14.67786       -9.73885
C          2.10707       13.42258       -9.07281
C          1.13059       12.98166       -8.15561
C         -1.05923       15.94941       -8.27798
S         -2.02113       15.05782       -7.14286
C         -1.52145       17.25542       -8.62747
C         -1.28572       17.79120       -9.83162
C         -1.74566       19.09446      -10.22925
C         -1.95756       19.47674      -11.49699
C         -2.34121       20.80882      -11.99915
C         -3.08595       21.73762      -11.34800
C         -3.47384       22.96231      -11.95918
N         -3.77885       23.96729      -12.45434
C         -3.59408       21.54762      -10.02716
N         -4.00276       21.39064       -8.94718
C         -1.91624       20.84179      -13.43187
C         -1.60204       19.53834      -13.84070
C         -1.68097       18.61419      -12.70430
O         -1.51814       17.41389      -12.77403
C         -1.19478       19.20738      -15.12557
C         -1.06239       20.24048      -16.05896
C         -1.32975       21.58172      -15.66426
C         -1.75236       21.87044      -14.34851
C         -1.16234       22.61163      -16.60069
C         -0.75187       22.33299      -17.90507
C         -0.50145       21.01998      -18.29269
C         -0.65252       19.97905      -17.37552
H         -5.63240        0.63896        0.05900
H        -10.51018        1.00627       -1.03965
H        -10.00007        0.32720       -3.37061
H         -8.35170       -0.24496       -5.10846
H         -5.94069       -0.41967       -4.55558
H         -5.16658       -0.02404       -2.25478
H         -9.43596        4.13794        3.23576
H         -3.45282        6.05641        5.17375
H         -3.60165        4.42029        7.04398
H         -5.53357        2.94669        7.36485
H         -7.52317        2.96365        5.83795
H         -3.77345        7.36552        3.39640
H         -5.72209        7.74558        1.05694
H         -5.56691       10.06423        0.33368
H         -4.68802       13.58605       -1.96448
H         -5.75191       11.86917       -3.29367
H         -6.96286       12.82337       -2.45302
H         -6.04660       10.15112       -1.71560
H         -7.44509       10.50975       -2.44859
H         -6.05451       12.50836        0.54713
H         -6.53504       13.93902       -0.35678
H         -3.91150       13.59790        0.89297
H         -5.17151       14.39075        1.55210
H         -3.44300       12.12213       -3.95622
H         -1.53101       10.53463       -4.65610
H          0.84217       10.97182       -3.62052
H          0.55350       10.69230       -1.19028
H         -0.57294        9.67134        0.99534
H         -2.14004        8.31524        2.29154
H         -0.33055       13.35847       -4.62234
H         -1.91821       11.79274       -6.75934
H          1.06731       16.56663      -10.06040
H          2.85746       14.93316      -10.43376
H          2.95273       12.76978       -9.28476
H          1.20409       12.02706       -7.65331
H         -2.13604       17.79405       -7.90831
H         -0.74120       17.23960      -10.58749
H         -1.86732       19.78582       -9.40038
H         -0.96614       18.17460      -15.37702
H         -1.92124       22.90659      -14.07565
H         -1.35287       23.64679      -16.32350
H         -0.62998       23.14391      -18.61903
H         -0.18580       20.80566      -19.31078
H         -0.44612       18.96086      -17.69982
