126

C         -2.30996       -0.17550       14.22954
C         -3.19549       -1.19924       14.22585
C         -3.36916       -2.08045       15.32880
N         -3.49165       -2.82778       16.20848
C         -4.12561       -1.34458       13.15060
N         -4.93217       -1.39715       12.32111
C         -1.75024        0.45047       15.43741
C         -1.83976        1.83987       15.25149
C         -1.65675        2.72588       16.29897
C         -1.32931        2.19572       17.56358
C         -1.06772        0.79874       17.70094
C         -1.25527       -0.06948       16.61693
C         -0.68474        0.28229       18.94510
C         -0.64965        1.10088       20.07195
C         -0.95819        2.45348       19.95899
C         -1.26848        3.00375       18.71114
C         -2.10033        2.13267       13.80998
O         -2.19622        3.22087       13.28548
C         -2.11460        0.78158       13.14309
C         -1.67272        0.58604       11.88341
C         -1.18227       -0.68319       11.39212
S         -0.25220       -1.71112       12.45259
C         -0.14048       -2.97068       11.32699
C          0.37387       -4.27678       11.68254
O          0.87850       -5.07208       10.89958
O          0.07396       -4.56123       12.98500
C          0.13139       -5.94991       13.30668
C         -0.57016       -2.55094       10.08931
C         -1.15432       -1.23691       10.10977
C         -1.68871       -0.60670        8.93296
C         -1.23020       -0.81314        7.68264
C         -1.79742       -0.16331        6.51087
C         -2.52076       -0.91114        5.63680
C         -3.20305       -0.26236        4.52951
C         -4.11239       -0.74133        3.63663
C         -4.72866       -2.13362        3.61149
C         -5.98879       -2.15770        4.52779
N         -6.64482       -3.46100        4.67903
C         -5.04847       -2.71411        2.21283
N         -3.91194       -2.70487        1.29387
C         -4.47481        0.42188        2.81399
C         -5.26706        0.56920        1.74163
C         -5.58378        1.92873        1.12137
C         -4.85451        3.08721        1.77889
C         -4.01857        2.94083        2.82009
C         -3.80104        1.61168        3.33659
C         -3.03406        1.19574        4.34404
C         -2.19203        1.94151        5.24994
C         -1.63088        1.28807        6.28373
C         -7.06696        2.14441        1.24258
C         -7.85921        2.77432        0.35701
C         -9.27978        2.90739        0.54081
S        -10.04774        2.13456        1.88396
C        -11.57973        2.77481        1.55166
C        -12.70054        2.52842        2.44016
O        -13.84123        2.94091        2.26620
O        -12.29937        1.81915        3.53588
C        -13.24796        1.72364        4.59271
C        -11.55181        3.52140        0.39304
C        -10.24655        3.58557       -0.20576
C        -10.02603        4.33144       -1.41850
C         -9.20192        3.97476       -2.41563
C         -8.99718        4.75974       -3.61978
C         -8.14768        4.47048       -4.61988
C         -7.93109        5.15111       -5.92505
C         -8.11772        6.46536       -6.20972
C         -7.76888        7.04777       -7.46566
N         -7.48415        7.52519       -8.48383
C         -8.61943        7.39516       -5.24836
N         -9.03769        8.14895       -4.47619
C         -7.30262        4.13595       -6.82711
C         -6.94066        3.02617       -6.05445
C         -7.32886        3.21140       -4.65766
O         -7.01147        2.46554       -3.75213
C         -6.35557        1.87929       -6.56326
C         -6.11987        1.81905       -7.93460
C         -6.47118        2.92327       -8.76117
C         -7.06815        4.07561       -8.19559
C         -6.22142        2.83296      -10.13892
C         -5.65101        1.68195      -10.68907
C         -5.32010        0.60262       -9.87354
C         -5.55187        0.67049       -8.50185
H         -1.79352        3.79253       16.14462
H         -1.05565       -1.13249       16.72112
H         -0.45073       -0.77470       19.05846
H         -0.40439        0.67431       21.04167
H         -0.96133        3.08072       20.84742
H         -1.49893        4.06573       18.65366
H         -1.54199        1.44775       11.23056
H         -0.09394       -6.06017       14.37104
H          1.12348       -6.36634       13.11170
H         -0.63533       -6.48721       12.73877
H         -0.51736       -3.19273        9.21599
H         -2.52789        0.07423        9.07087
H         -0.38780       -1.47274        7.48566
H         -2.63546       -1.98185        5.76319
H         -4.00066       -2.82488        4.05940
H         -6.73535       -1.44195        4.16427
H         -5.71072       -1.82838        5.53690
H         -6.89322       -3.85291        3.77304
H         -6.00972       -4.12547        5.11887
H         -5.90436       -2.20246        1.76430
H         -5.36168       -3.75865        2.31146
H         -3.56277       -1.75124        1.19044
H         -4.22473       -2.99519        0.36862
H         -5.78212       -0.26236        1.28515
H         -5.28787        1.89238        0.06525
H         -5.04759        4.08077        1.38400
H         -3.53890        3.79505        3.28347
H         -2.04471        3.00443        5.10432
H         -1.01004        1.83220        6.99082
H         -7.47951        1.72848        2.15909
H         -7.39815        3.21814       -0.52018
H        -12.83002        1.05973        5.35530
H        -14.19342        1.30246        4.24202
H        -13.39561        2.71070        5.03998
H        -12.43598        4.00534       -0.00626
H        -10.61766        5.23975       -1.52992
H         -8.66520        3.03579       -2.32588
H         -9.64225        5.63110       -3.68130
H         -6.11907        1.05088       -5.90094
H         -7.35259        4.88347       -8.86299
H         -6.46832        3.66066      -10.80223
H         -5.46554        1.62675      -11.75890
H         -4.88168       -0.29351      -10.30496
H         -5.28939       -0.18407       -7.88034
