142

C          2.98324        3.25318        4.54863
C          2.70837        3.42263        5.86364
C          3.61777        4.08491        6.74185
N          4.38073        4.59040        7.45616
C          1.64787        2.72644        6.52654
N          0.86356        2.13991        7.12924
C          4.32272        3.51726        3.97997
C          4.69105        2.39337        3.23479
C          5.97984        2.24425        2.74309
C          6.89255        3.30400        2.92357
C          6.45983        4.51615        3.53739
C          5.16763        4.60991        4.08614
C          7.33172        5.61016        3.60236
C          8.64193        5.50763        3.13450
C          9.09751        4.30115        2.61224
C          8.23035        3.21107        2.49764
C          3.49749        1.52634        3.02497
O          3.45298        0.48157        2.41478
C          2.34621        2.29274        3.64467
C          1.12516        2.25925        3.07590
C          0.24427        3.38069        3.11944
S          0.41168        4.57376        1.88638
C         -0.92641        5.51740        2.45669
C         -1.22207        5.09223        3.75054
C         -0.86019        3.68905        3.89760
C         -1.58873        2.76450        4.84825
O         -2.22432        1.72309        4.08865
C         -2.90369        0.76061        4.88477
C         -2.63246        3.51987        5.69492
C         -2.18352        4.92642        6.05972
C         -1.99314        5.83109        4.82164
O         -1.25943        6.94995        5.35663
C         -1.16790        8.08883        4.51980
C         -1.49019        6.53978        1.59090
C         -2.84172        6.71976        1.60939
C         -3.48949        7.39541        0.48930
C         -4.80331        7.64432        0.23620
C         -5.97143        7.58907        1.21078
C         -6.18883        8.96553        1.90717
N         -6.55357       10.07182        1.01978
C         -7.33075        7.05290        0.70115
N         -7.25367        5.68075        0.19304
C         -4.83642        7.85533       -1.21700
C         -5.84659        7.82721       -2.09659
C         -5.64106        7.82940       -3.60115
C         -4.21027        8.14710       -4.01619
C         -3.18764        8.19761       -3.13785
C         -3.47651        7.93951       -1.74854
C         -2.67085        7.70970       -0.70339
C         -1.23815        7.76188       -0.56831
C         -0.69517        7.25527        0.55650
C         -6.66436        8.75013       -4.20792
C         -7.89923        8.33334       -4.55680
C         -8.88271        9.30225       -4.87933
S         -9.00846        9.88960       -6.47128
C         -9.93607       11.27312       -5.99528
C        -10.29987       11.13153       -4.64786
C         -9.87891        9.85583       -4.09127
C        -10.34187        9.35597       -2.73338
O        -10.88136        8.01830       -2.77704
C        -12.09159        7.87180       -3.51570
C        -11.34716       10.29822       -2.05018
C        -11.00783       11.75504       -2.28066
C        -11.04801       12.13317       -3.78588
O        -10.47253       13.43013       -3.96623
C        -11.11009       14.44666       -3.21033
C        -10.32192       12.26035       -6.98273
C         -9.55294       12.69792       -8.00368
C         -9.91974       13.41998       -9.25542
C        -10.71340       14.50942       -9.35128
C        -10.81528       15.27257      -10.55503
N        -10.88343       15.89882      -11.52710
C        -11.40509       15.03225       -8.21844
N        -11.98105       15.44860       -7.30081
C         -9.01841       12.87382      -10.33150
C         -7.98575       12.19202       -9.67985
C         -8.12335       12.31626       -8.22613
O         -7.21226       12.27546       -7.42803
C         -7.02375       11.43811      -10.32376
C         -7.08491       11.34416      -11.71323
C         -8.03846       12.11164      -12.43824
C         -9.02489       12.86440      -11.72808
C         -7.96171       12.07395      -13.84625
C         -7.03280       11.25321      -14.50540
C         -6.18783       10.42592      -13.77482
C         -6.20764       10.47944      -12.38467
H          6.25885        1.33696        2.21496
H          4.85394        5.51789        4.58468
H          7.00017        6.55916        4.01929
H          9.30653        6.36642        3.19209
H         10.13104        4.21337        2.28399
H          8.61301        2.28349        2.07656
H          0.91403        1.50204        2.31547
H         -0.85885        2.29022        5.49783
H         -3.09017       -0.12394        4.27015
H         -3.87273        1.15546        5.20523
H         -2.30953        0.46624        5.75490
H         -2.81781        2.95270        6.61629
H         -3.59433        3.56770        5.16944
H         -1.24593        4.86974        6.63168
H         -2.91028        5.39065        6.73780
H         -2.97632        6.15624        4.46513
H         -2.15697        8.44492        4.21978
H         -0.53936        7.88967        3.65214
H         -0.66697        8.88045        5.08377
H         -3.49089        6.16782        2.27857
H         -5.68001        6.90499        2.01966
H         -5.28593        9.24470        2.46313
H         -6.98876        8.86353        2.65137
H         -5.78461       10.24395        0.36841
H         -6.63964       10.92713        1.57012
H         -7.76500        7.71919       -0.04924
H         -8.05579        7.05535        1.52342
H         -6.39895        5.56166       -0.35165
H         -8.02296        5.52824       -0.45965
H         -6.87304        7.71297       -1.78965
H         -5.84274        6.80715       -3.95302
H         -4.00943        8.26637       -5.07757
H         -2.16612        8.36536       -3.45877
H         -0.63920        8.26713       -1.31614
H          0.37296        7.35001        0.72998
H         -6.41608        9.81120       -4.22889
H         -8.19422        7.29091       -4.48629
H         -9.45474        9.29859       -2.08772
H        -12.92737        8.39548       -3.04385
H        -12.36316        6.81361       -3.52514
H        -11.97250        8.21251       -4.54709
H        -11.39098       10.06704       -0.97765
H        -12.36983       10.15816       -2.40919
H        -10.03115       11.98946       -1.83899
H        -11.74261       12.35829       -1.73217
H        -12.09028       12.15171       -4.13035
H        -10.79576       15.41298       -3.60694
H        -10.79609       14.39456       -2.16250
H        -12.19796       14.36187       -3.28327
H        -11.36442       12.56193       -6.92185
H         -6.26883       10.91805       -9.74332
H         -9.78643       13.38733      -12.29841
H         -8.61996       12.69179      -14.45401
H         -6.97550       11.25009      -15.59189
H         -5.50253        9.74918      -14.28090
H         -5.54053        9.82655      -11.82472
