100

C          3.79882       12.11457        3.75314
C          3.15032       13.22228        4.17806
C          3.84499       14.33880        4.73105
N          4.42159       15.22917        5.19934
C          1.72792       13.27230        4.23716
N          0.56880       13.28914        4.28183
C          5.26719       11.87605        3.83174
C          5.45587       10.50061        4.01874
C          6.69879        9.90084        4.08724
C          7.82291       10.70307        3.88127
C          7.67253       12.10387        3.65896
C          6.38181       12.68851        3.65658
C          8.82681       12.86537        3.40614
C         10.08869       12.26346        3.35247
C         10.22284       10.89513        3.56748
C          9.09692       10.12121        3.84090
C          4.16765        9.79177        3.95356
O          3.96216        8.64193        4.27256
C          3.18905       10.80492        3.43109
C          2.17153       10.50386        2.59881
C          1.82986        9.18454        2.13034
C          1.46554        7.98874        2.94298
N          1.33028        6.86071        2.30120
C          1.58891        7.21469        1.01703
C          1.77793        8.64207        0.90837
C          1.92666        8.97571       -0.54865
S          1.58084       10.43256       -1.27801
C          2.14896        7.61885       -1.17365
C          1.81199        6.63113       -0.15648
N          1.90280        5.36843       -0.64651
C          2.33655        5.56453       -1.85727
C          2.55554        6.97692       -2.27393
C          3.13487        7.39444       -3.49374
S          2.83558        6.49405       -4.96607
C          4.01927        8.39490       -3.80853
C          4.71799        9.43796       -3.10723
O          4.75291        9.59848       -1.89711
N          5.39549       10.14097       -4.07908
C          6.20114       11.29866       -3.78844
C          5.29729        9.58234       -5.33755
O          5.84461        9.94112       -6.36733
C          4.41213        8.45355       -5.16498
C          3.89471        7.45861       -5.95121
C          4.05138        7.14428       -7.33147
C          5.18723        7.40745       -7.99602
C          5.34625        7.20094       -9.39724
C          5.68658        8.24705      -10.39784
N          5.78792        7.85717      -11.63773
C          5.53424        6.52467      -11.55537
C          5.26875        6.13402      -10.18880
C          5.01221        4.66257      -10.13741
S          4.70035        3.68756       -8.82948
C          5.12770        4.28816      -11.57905
C          5.45853        5.46477      -12.35054
N          5.58907        5.15582      -13.66520
C          5.31550        3.88063      -13.68831
C          4.99937        3.23808      -12.38356
C          4.65957        1.87069      -12.12829
C          3.61182        1.20182      -12.63960
C          3.09877       -0.16346      -12.35454
C          3.80552       -1.23356      -11.90926
C          3.24043       -2.53113      -11.77724
N          2.77853       -3.59796      -11.67060
C          5.19358       -1.15973      -11.59256
N          6.32305       -1.09054      -11.33261
C          1.67057       -0.17626      -12.80533
C          1.41570        1.00049      -13.51925
C          2.59103        1.87175      -13.51726
O          2.67179        2.93000      -14.10323
C          0.18913        1.32018      -14.08241
C         -0.86725        0.42427      -13.90879
C         -0.65813       -0.77227      -13.16846
C          0.61368       -1.05900      -12.61904
C         -1.73798       -1.65036      -12.98754
C         -2.99597       -1.35915      -13.51994
C         -3.19447       -0.18678      -14.24332
C         -2.13628        0.70039      -14.43895
H          6.77506        8.82624        4.22540
H          6.28240       13.75312        3.45738
H          8.75616       13.93687        3.22833
H         10.96919       12.86274        3.13380
H         11.20182       10.42490        3.51284
H          9.22131        9.05082        3.99575
H          1.63320       11.30648        2.09874
H          1.28850        8.10206        4.02355
H          2.54831        4.74740       -2.56310
H          5.69222       11.91321       -3.04067
H          6.38256       11.88306       -4.69408
H          7.15486       10.95765       -3.37669
H          3.20833        6.69457       -7.85344
H          6.05523        7.83882       -7.50411
H          5.82414        9.28830      -10.06633
H          5.32140        3.26889      -14.60276
H          5.30816        1.41313      -11.38588
H          0.06409        2.25714      -14.61894
H          0.72117       -1.96797      -12.03645
H         -1.61153       -2.57437      -12.42581
H         -3.82198       -2.04936      -13.36629
H         -4.17529        0.04074      -14.65307
H         -2.31462        1.61366      -15.00404
