112

C          0.56303        2.39733        2.30981
C         -0.40806        1.59523        2.80185
C         -0.12019        0.31029        3.35286
N          0.12552       -0.74001        3.78348
C         -1.75061        2.04901        2.93925
N         -2.85042        2.39612        3.04894
C          2.00404        2.16349        2.52339
C          2.57462        3.37875        2.93218
C          3.91248        3.49688        3.26215
C          4.74258        2.39061        3.01455
C          4.19317        1.20105        2.44610
C          2.80761        1.07157        2.26105
C          5.05498        0.18098        2.02419
C          6.43369        0.29995        2.19248
C          6.96414        1.41835        2.82930
C          6.12518        2.45613        3.24194
C          1.59751        4.47676        2.70123
O          1.73142        5.65019        2.96919
C          0.46019        3.80932        1.95447
C         -0.08323        4.45056        0.90128
C         -0.78540        3.86796       -0.26173
C         -0.10164        3.46136       -1.41387
C          1.31500        3.56362       -1.77825
O          2.14772        4.05137       -1.03615
N          1.43872        3.09380       -3.06983
C          0.22913        2.71976       -3.59149
O         -0.05942        2.24920       -4.67537
C         -0.75152        2.95188       -2.54096
C         -2.11471        2.78515       -2.61193
C         -2.81199        3.22680       -1.49994
C         -2.18018        3.78191       -0.37200
C         -3.16780        4.37978        0.52974
O         -2.89382        5.20751        1.37834
S         -4.79790        3.89422        0.10952
C         -4.26779        3.24885       -1.41853
O         -4.99541        2.87733       -2.32132
C          2.60341        3.01666       -3.78791
C          3.81527        2.94551       -3.22449
C          4.95995        2.85647       -4.03245
N          6.14006        3.34476       -3.51522
C          7.09128        3.23023       -4.48898
C          8.44058        3.53485       -4.79614
C          8.60453        3.10505       -6.10528
N          7.44350        2.51611       -6.54332
C          6.52012        2.63413       -5.56141
C          5.16525        2.37107       -5.30792
C          9.64708        3.23972       -7.04904
C          9.85454        2.29690       -7.98268
C         10.88388        2.44846       -8.99948
C         12.18436        1.99544       -8.76146
C         12.79367        1.29938       -7.61501
O         12.19770        1.06814       -6.57907
N         14.11538        1.05795       -7.94426
C         14.42648        1.60252       -9.16190
O         15.47578        1.61625       -9.77738
C         13.19619        2.17165       -9.69225
C         12.99328        2.78445      -10.90925
C         11.70064        3.22822      -11.15702
C         10.65639        3.07154      -10.24086
C          9.39610        3.62442      -10.77831
O          8.30762        3.57439      -10.23707
S          9.63619        4.35583      -12.36143
C         11.31553        3.90994      -12.38685
O         12.09356        4.13131      -13.29666
C         15.03609        0.35884       -7.19243
C         14.69548       -0.55503       -6.27705
C         15.62575       -1.31135       -5.47209
C         15.39077       -2.55069       -5.01089
C         16.11068       -3.33869       -3.98695
C         17.41413       -3.20967       -3.61129
C         18.01876       -4.06660       -2.64983
N         18.51209       -4.74765       -1.86904
C         18.28755       -2.25413       -4.18953
N         19.01319       -1.46778       -4.66389
C         15.16053       -4.40820       -3.54094
C         14.07065       -4.43082       -4.41937
C         14.17500       -3.35042       -5.40078
O         13.41851       -3.18857       -6.33612
C         13.01545       -5.32718       -4.32822
C         13.02268       -6.24691       -3.27818
C         14.08958       -6.22880       -2.33766
C         15.14995       -5.30169       -2.47713
C         14.06723       -7.14407       -1.27553
C         13.02571       -8.06607       -1.14177
C         11.98870       -8.08418       -2.06983
C         11.98408       -7.18028       -3.12997
H          4.31354        4.44827        3.60028
H          2.39168        0.15764        1.84705
H          4.66379       -0.70277        1.52373
H          7.09295       -0.48255        1.82475
H          8.03782        1.49397        2.98315
H          6.56806        3.32954        3.71649
H          0.15634        5.50974        0.77394
H         -2.60176        2.40072       -3.50424
H          2.47373        2.98917       -4.87083
H          3.94101        2.91198       -2.14718
H          6.30157        3.77171       -2.61127
H          9.16709        4.03502       -4.16980
H          7.23925        2.13189       -7.45634
H          4.44436        1.91707       -5.97309
H         10.24060        4.14785       -7.00516
H          9.29133        1.36583       -8.00336
H         13.79734        2.90801      -11.62699
H         16.08035        0.53271       -7.45204
H         13.64287       -0.78603       -6.12216
H         16.49751       -0.73912       -5.17137
H         12.20571       -5.28924       -5.05223
H         15.93203       -5.30679       -1.72566
H         14.86568       -7.15115       -0.53612
H         13.02635       -8.76658       -0.31151
H         11.17930       -8.80334       -1.96488
H         11.16089       -7.20865       -3.84218
