134

C          1.19747       -6.16760       -5.70714
C          0.24520       -6.28776       -4.75821
C         -0.48130       -7.49862       -4.56912
N         -1.09471       -8.47642       -4.45078
C          0.00531       -5.24335       -3.82312
N         -0.17812       -4.39494       -3.05352
C          1.82122       -7.32123       -6.38358
C          3.20042       -7.09361       -6.39914
C          4.09352       -8.08593       -6.76376
C          3.57087       -9.29913       -7.25879
C          2.16618       -9.43616       -7.45805
C          1.29197       -8.44542       -6.99193
C          1.66353      -10.57234       -8.10798
C          2.51358      -11.61379       -8.47410
C          3.87246      -11.53401       -8.18348
C          4.40072      -10.38024       -7.59562
C          3.45461       -5.65384       -6.10274
O          4.52785       -5.09306       -6.07114
C          2.07322       -5.03273       -5.96227
C          1.82517       -3.76800       -6.36628
C          0.55064       -3.04043       -6.67224
C          0.48340       -1.63866       -6.55351
C          1.44980       -0.65961       -6.04807
O          2.41410       -0.98578       -5.37738
N          0.98394        0.59581       -6.37394
C         -0.30576        0.53657       -6.84288
O         -1.07270        1.42205       -7.16526
C         -0.62686       -0.87994       -6.94584
C         -1.80151       -1.43956       -7.38033
C         -1.78451       -2.81905       -7.46624
C         -0.63140       -3.59310       -7.21096
C         -0.87452       -4.94774       -7.72140
O         -0.01262       -5.71055       -8.10795
S         -2.57946       -5.30107       -7.86914
C         -2.96010       -3.60504       -7.82771
O         -4.06278       -3.12953       -8.02202
C          1.65217        1.78185       -6.22290
C          2.96176        1.89844       -5.95857
C          3.66991        3.15853       -5.78755
C          5.00027        3.10058       -5.50110
C          5.71480        4.31435       -5.16361
C          6.99292        4.52184       -4.74131
C          8.15406        3.53279       -4.62845
C          8.98729        3.46479       -5.94082
N          9.62753        4.71937       -6.35361
C          9.06472        3.72171       -3.38641
N         10.15128        2.74524       -3.22805
C          6.99405        5.93599       -4.35452
C          7.81664        6.64521       -3.57467
C          7.59191        8.08669       -3.21542
C          6.34651        8.69691       -3.86022
C          5.47329        7.97951       -4.58744
C          5.75381        6.58280       -4.76467
C          4.97313        5.59488       -5.20733
C          3.59979        5.63833       -5.61384
C          2.98822        4.47191       -5.86928
C          8.82318        8.90456       -3.49723
C          9.93988        8.58131       -4.17541
C         10.98281        9.55650       -4.53681
C         10.68639       10.87822       -4.91378
C          9.42671       11.65385       -4.96611
O          8.32389       11.25418       -4.64564
N          9.73280       12.92074       -5.39891
C         11.06967       13.05382       -5.63336
O         11.70833       14.00769       -6.03884
C         11.67396       11.75508       -5.35636
C         12.99406       11.39048       -5.50679
C         13.30237       10.08801       -5.14111
C         12.34229        9.19099       -4.64942
C         12.97970        7.92061       -4.25127
O         12.44513        7.02729       -3.62200
S         14.67492        7.86980       -4.71430
C         14.64718        9.53192       -5.22741
O         15.61403       10.16221       -5.61605
C          8.81666       13.93641       -5.53493
C          7.50142       13.73399       -5.70075
C          6.52358       14.77999       -5.82484
C          6.22625       15.71298       -4.90826
C          5.20231       16.77848       -4.94763
C          4.66606       17.35055       -6.05696
C          3.75300       18.42819       -5.99658
N          2.98481       19.31135       -5.95348
C          4.99323       16.94154       -7.37493
N          5.24590       16.59460       -8.46737
C          5.00722       17.22966       -3.53510
C          5.99817       16.63964       -2.74070
C          6.82367       15.72355       -3.52567
O          7.77793       15.11723       -3.08339
C          6.15098       16.87617       -1.38365
C          5.24903       17.73875       -0.76162
C          4.20228       18.32768       -1.52310
C          4.08899       18.06249       -2.90726
C          3.29057       19.17072       -0.86996
C          3.40857       19.43316        0.49724
C          4.44245       18.86207        1.23347
C          5.35908       18.01891        0.60778
H          5.16360       -7.91446       -6.69563
H          0.21878       -8.55198       -7.12695
H          0.60180      -10.65771       -8.33339
H          2.11050      -12.49318       -8.97069
H          4.52598      -12.36765       -8.42857
H          5.46921      -10.33825       -7.39590
H          2.71730       -3.16704       -6.57927
H         -2.66780       -0.84122       -7.64479
H          1.02390        2.65681       -6.37471
H          3.57259        1.00497       -5.84942
H          5.53291        2.15894       -5.41989
H          7.70867        2.53489       -4.51320
H          8.35344        3.11072       -6.76196
H          9.77717        2.71177       -5.83567
H          8.89450        5.37120       -6.63897
H         10.17944        4.53998       -7.19265
H          8.44848        3.70225       -2.47973
H          9.58787        4.67320       -3.43435
H         10.84790        2.95665       -3.94928
H         10.64158        2.97256       -2.35961
H          8.68612        6.23290       -3.10109
H          7.43236        8.13040       -2.13095
H          6.14279        9.74767       -3.67921
H          4.57504        8.41958       -5.00610
H          3.06242        6.57770       -5.66393
H          1.93779        4.50700       -6.13289
H          8.71932        9.89649       -3.07346
H         10.09215        7.56193       -4.53404
H         13.73946       12.08392       -5.88342
H          9.23662       14.93784       -5.49096
H          7.09403       12.73320       -5.83339
H          5.97077       14.68813       -6.75474
H          6.95246       16.38884       -0.83509
H          3.26757       18.51955       -3.44982
H          2.47401       19.63356       -1.42061
H          2.69024       20.08526        0.98803
H          4.53360       19.06916        2.29696
H          6.15878       17.57920        1.20096
