146

C          6.17008        3.18386       -5.60021
C          5.18088        3.37443       -6.49771
C          3.81619        3.46827       -6.09322
N          2.71414        3.54948       -5.74323
C          5.42750        3.33151       -7.89780
N          5.60315        3.24813       -9.04896
C          6.02935        2.87243       -4.16246
C          7.04714        1.96416       -3.81250
C          7.30222        1.57986       -2.50851
C          6.61051        2.25650       -1.49635
C          5.64378        3.25453       -1.83436
C          5.30348        3.50570       -3.17418
C          5.10619        4.05192       -0.81807
C          5.49304        3.86997        0.50947
C          6.38413        2.85452        0.84603
C          6.93311        2.04466       -0.14909
C          7.99859        1.83234       -4.94376
O          8.97505        1.11910       -5.00891
C          7.57759        2.93406       -5.88049
C          8.56148        3.77207       -6.24490
C          8.41252        5.17348       -6.48383
S          8.02526        5.73774       -8.05795
C          8.44948        7.34100       -7.67627
C          8.86600        7.47316       -6.37160
C          8.69851        6.24690       -5.63337
C          8.98065        6.18035       -4.14598
C          9.46988        7.51528       -3.51244
C         10.26615        8.42617       -4.49465
O         11.52301        7.77152       -4.77957
C         12.42653        8.53523       -5.56984
C          9.45277        8.72221       -5.77417
N          8.38924        8.24668       -2.82539
C          7.23282        8.72379       -3.37309
C          6.28751        9.45875       -2.78784
C          5.09832        9.89488       -3.50118
C          4.86320       11.23014       -3.59402
C          3.52771       11.68374       -3.94118
C          2.93869       12.90935       -3.84283
C          3.46001       14.33630       -3.91149
C          2.42981       15.36689       -4.49718
N          2.01865       15.11507       -5.88043
C          3.99374       14.91353       -2.57676
N          5.22549       14.27331       -2.11361
C          1.56681       12.53575       -3.49486
C          0.81744       13.04091       -2.50307
C         -0.35586       12.26034       -1.93549
C         -0.75591       11.02219       -2.72777
C          0.02809       10.50603       -3.68858
C          1.28716       11.16339       -3.88266
C          2.49002       10.63566       -4.11807
C          2.86423        9.26831       -4.35027
C          4.12693        8.92517       -4.04839
C         -1.48266       13.20875       -1.71702
C         -2.48591       13.48597       -2.56148
C         -3.47931       14.45040       -2.23547
S         -4.22745       15.30745       -3.53023
C         -5.14079       16.27242       -2.46966
C         -4.92189       15.95115       -1.15053
C         -3.99220       14.86524       -1.00854
C         -3.60725       14.33168        0.35208
C         -4.37016       14.96136        1.53018
C         -4.69586       16.46071        1.30047
O         -3.45426       17.19807        1.25785
C         -3.61421       18.60259        1.10596
C         -5.54614       16.63310        0.02794
N         -5.58884       14.18512        1.83188
C         -5.61266       13.03413        2.58962
C         -4.60032       12.48319        3.27111
C         -4.73357       11.29070        4.07109
C         -3.92034       10.93831        5.07791
C         -3.90796        9.69649        5.88513
C         -4.95693        8.89201        6.16813
C         -4.85432        7.77601        7.04764
N         -4.77265        6.86468        7.75924
C         -6.26688        9.11384        5.66687
N         -7.34166        9.29353        5.24971
C         -2.54158        9.61330        6.48894
C         -1.90057       10.84534        6.31130
C         -2.72528       11.74740        5.50629
O         -2.44097       12.89983        5.25662
C         -0.62127       11.12727        6.76015
C          0.08982       10.10423        7.38672
C         -0.51296        8.82473        7.55229
C         -1.83182        8.59196        7.10423
C          0.23408        7.80099        8.15049
C          1.54646        8.02551        8.57112
C          2.12852        9.27993        8.41091
C          1.40336       10.31620        7.82577
H          8.11886        0.89773       -2.28701
H          4.58527        4.28247       -3.42100
H          4.42114        4.86331       -1.05719
H          5.10549        4.53220        1.27945
H          6.67474        2.71103        1.88373
H          7.65124        1.27826        0.13630
H          9.59370        3.43269       -6.15336
H          8.42399        8.10563       -8.44051
H          9.74826        5.41591       -3.97752
H          8.07310        5.83611       -3.63035
H         10.15887        7.22164       -2.70797
H         10.49919        9.37376       -3.98941
H         13.35257        7.96434       -5.67859
H         12.65605        9.49241       -5.09259
H         12.03802        8.69822       -6.57769
H         10.07926        9.20475       -6.52973
H          8.65862        9.44478       -5.56492
H          8.55916        8.48873       -1.85057
H          7.09468        8.46553       -4.41900
H          6.35207        9.73810       -1.73765
H          5.56066       11.91464       -3.14109
H          4.30036       14.33340       -4.62272
H          2.86155       16.37633       -4.47216
H          1.53276       15.41356       -3.87068
H          2.74375       15.43301       -6.52208
H          1.19369       15.67751       -6.09365
H          3.23782       14.85724       -1.78808
H          4.22254       15.97789       -2.71588
H          5.66432       13.80674       -2.90292
H          5.89651       14.98653       -1.83165
H          1.12677       13.93131       -1.96778
H         -0.05114       11.89257       -0.94351
H         -1.67639       10.51577       -2.45358
H         -0.21747        9.59861       -4.22409
H          2.14095        8.55747       -4.72773
H          4.45550        7.89801       -4.17307
H         -1.37106       13.74309       -0.78432
H         -2.50625       13.01883       -3.54381
H         -5.79061       17.04022       -2.86390
H         -2.55232       14.55467        0.53137
H         -3.72014       13.23859        0.35326
H         -3.70214       14.92119        2.40109
H         -5.26198       16.82777        2.16551
H         -2.66438       19.08921        1.34465
H         -4.38505       18.99072        1.77833
H         -3.85619       18.84677        0.06766
H         -5.69546       17.69173       -0.20230
H         -6.54123       16.20337        0.19089
H         -6.25835       14.15377        1.06245
H         -6.60754       12.59415        2.62354
H         -3.61882       12.94161        3.22794
H         -5.55212       10.65143        3.75623
H         -0.18784       12.10856        6.58572
H         -2.24958        7.59731        7.22481
H         -0.19656        6.81108        8.28828
H          2.11572        7.21691        9.02233
H          3.15114        9.45126        8.73659
H          1.87760       11.28833        7.70430
