110

C         -4.60582        6.75452       -6.09466
C         -3.45831        7.33017       -5.66959
C         -3.12845        8.68218       -5.97909
N         -2.87751        9.78330       -6.21559
C         -2.48505        6.61377       -4.91254
N         -1.69975        6.03685       -4.28130
C         -5.58079        7.31912       -7.05233
C         -6.17406        6.24748       -7.73954
C         -7.12092        6.42212       -8.73009
C         -7.54526        7.72829       -9.00441
C         -7.01776        8.82439       -8.25820
C         -6.02425        8.61003       -7.28530
C         -7.51455       10.11335       -8.49619
C         -8.49509       10.33055       -9.46473
C         -8.98635        9.26460      -10.21341
C         -8.51672        7.97097       -9.98385
C         -5.76960        4.96238       -7.12833
O         -6.08528        3.84759       -7.48257
C         -5.00837        5.36019       -5.90159
C         -5.14271        4.59556       -4.80883
C         -4.94974        5.08180       -3.48795
S         -4.48350        3.99497       -2.21924
C         -4.45327        5.23234       -0.97569
C         -4.80759        6.40542       -1.58721
C         -5.10023        6.31667       -2.92242
O         -5.43942        7.52592       -3.40268
C         -5.31040        8.36706       -2.30982
S         -5.54407        9.98917       -2.38275
O         -4.92726        7.68117       -1.17195
C         -4.06618        4.93074        0.37434
C         -4.11343        5.95383        1.26682
C         -3.52222        5.80921        2.57245
C         -3.36545        6.71612        3.56907
C         -4.02429        8.07250        3.79324
C         -3.20322        9.19801        3.12081
N         -3.75716       10.53883        3.32464
C         -5.53430        8.06197        3.36418
N         -6.27382        9.31428        3.56537
C         -2.35075        6.09033        4.42164
C         -1.47675        6.62038        5.28785
C         -0.38790        5.77197        5.95029
C         -0.47265        4.27932        5.64514
C         -1.32266        3.76846        4.74014
C         -2.15951        4.69486        4.03496
C         -2.83729        4.54675        2.89458
C         -2.95317        3.41939        2.01243
C         -3.54751        3.61369        0.82146
C         -0.36757        5.96391        7.43859
C         -1.43099        6.29820        8.18461
C         -1.30969        6.45330        9.58043
S         -2.33538        7.56659       10.44157
C         -1.59121        7.23636       11.98688
C         -0.68471        6.23124       11.79020
C         -0.49304        5.85264       10.48941
O          0.47264        4.92270       10.40333
C          0.87429        4.75457       11.71903
S          2.08426        3.74596       12.18561
O          0.13126        5.53020       12.59675
C         -2.03101        7.93342       13.14465
C         -1.23333        8.22113       14.18587
C         -1.64067        8.57028       15.55883
C         -2.60450        9.44111       15.92518
C         -2.85870        9.76852       17.28543
N         -3.06570       10.02213       18.40016
C         -3.40092       10.13624       14.96627
N         -4.04802       10.68170       14.17350
C         -0.66165        7.87546       16.44408
C          0.43907        7.49224       15.66090
C          0.22840        7.89545       14.26764
O          1.07980        7.98901       13.40985
C          1.49370        6.72843       16.12705
C          1.44835        6.30654       17.45706
C          0.35531        6.69234       18.28814
C         -0.69779        7.47802       17.77044
C          0.33242        6.25312       19.61884
C          1.34994        5.43932       20.12060
C          2.40478        5.04963       19.29988
C          2.45600        5.48231       17.97548
H         -7.54835        5.56010       -9.23390
H         -5.65183        9.45126       -6.70635
H         -7.14726       10.96374       -7.92415
H         -8.87472       11.33507       -9.63499
H         -9.74413        9.43854      -10.97319
H         -8.92388        7.15219      -10.57356
H         -5.54533        3.58608       -4.91017
H         -4.42574        6.94786        0.99030
H         -4.03009        8.25868        4.87801
H         -3.12585        9.00932        2.04483
H         -2.18622        9.20510        3.52739
H         -4.76321       10.49377        3.09821
H         -3.35477       11.18609        2.64965
H         -6.05778        7.26469        3.90568
H         -5.63951        7.84624        2.30200
H         -6.19493        9.60494        4.54066
H         -7.26547        9.15873        3.38397
H         -1.47344        7.68557        5.49679
H          0.57532        6.12596        5.55775
H          0.19778        3.60872        6.17712
H         -1.36902        2.70727        4.52546
H         -2.56268        2.45224        2.30251
H         -3.63298        2.77037        0.14483
H          0.60726        5.80529        7.89817
H         -2.40516        6.45486        7.72983
H         -3.09803        8.13255       13.19286
H          2.29316        6.43128       15.45355
H         -1.54109        7.71374       18.41227
H         -0.48410        6.53591       20.28045
H          1.31498        5.10428       21.15421
H          3.18939        4.40617       19.69013
H          3.28587        5.16013       17.34889
