116

C          1.95552        5.30059        8.14147
C          1.91156        4.58869        9.28780
C          1.42515        5.14745       10.49146
N          1.03819        5.63269       11.48593
C          2.55198        3.32617        9.43555
N          3.12534        2.32917        9.60814
C          1.86036        6.77069        8.11377
C          2.96090        7.25034        7.39730
C          3.30654        8.59491        7.41501
C          2.42934        9.49124        8.06790
C          1.19291        9.01295        8.59339
C          0.92695        7.64011        8.63978
C          0.24772        9.91712        9.09305
C          0.54248       11.27478        9.17605
C          1.79213       11.73791        8.77293
C          2.72275       10.85856        8.20697
C          3.54970        6.12145        6.61165
O          4.47907        6.17065        5.83720
C          2.65304        4.93556        6.91350
C          2.38236        3.97867        6.00954
C          1.24869        3.11615        6.11585
S          1.35530        1.57064        6.91530
C         -0.32029        1.22068        6.73896
C         -0.91594        2.17922        5.97432
C         -0.02775        3.21672        5.61017
C         -0.73278        4.13692        4.79800
C         -2.02953        3.74610        4.65451
C         -2.26843        2.41967        5.39890
C         -3.06162        4.41222        3.86737
C         -4.32651        3.90310        3.81435
C         -5.30161        4.45598        2.88649
C         -6.57663        4.07563        2.57692
C         -7.45731        3.05074        3.30416
C         -7.73976        3.47530        4.77746
N         -8.47907        4.73074        4.91807
C         -8.78926        2.66672        2.60117
N         -9.61005        1.66552        3.29488
C         -6.86524        4.83451        1.34445
C         -7.76356        4.67235        0.35968
C         -7.73693        5.48932       -0.93599
C         -6.72477        6.61845       -0.92948
C         -5.82021        6.78293        0.04590
C         -5.81439        5.82224        1.11147
C         -4.87334        5.57299        2.02303
C         -3.59532        6.19629        2.20816
C         -2.74771        5.63496        3.08451
C         -9.11108        6.00652       -1.22825
C         -9.47615        6.74430       -2.28628
C        -10.81630        7.18588       -2.46858
S        -11.22535        8.14926       -3.86523
C        -12.88951        8.27954       -3.42999
C        -13.12843        7.60820       -2.26465
C        -11.95976        7.01935       -1.72989
C        -12.31216        6.36800       -0.51642
C        -13.62605        6.50423       -0.27764
C        -14.29960        7.32506       -1.38237
C        -14.31559        6.00592        0.88284
C        -14.37157        4.72846        1.29812
C        -15.10268        4.13800        2.44796
C        -15.45119        4.75582        3.60602
C        -16.09014        4.08149        4.68075
N        -16.62182        3.53748        5.56082
C        -15.17011        6.13019        3.86245
N        -14.96020        7.25119        4.07404
C        -15.23538        2.67542        2.16031
C        -14.44117        2.37007        1.05024
C        -13.81748        3.57441        0.50355
O        -13.02917        3.56543       -0.41850
C        -14.31162        1.10079        0.50941
C        -15.03010        0.06092        1.09889
C        -15.86701        0.33032        2.21648
C        -15.96574        1.64253        2.73529
C        -16.59081       -0.73017        2.78302
C        -16.49353       -2.02348        2.26220
C        -15.67163       -2.27760        1.16896
C        -14.94225       -1.24032        0.58809
H          4.20923        8.94205        6.92217
H          0.01020        7.26791        9.08866
H         -0.72786        9.57011        9.42945
H         -0.19669       11.96480        9.57607
H          2.03775       12.79056        8.89168
H          3.68535       11.25385        7.89005
H          2.94263        3.94641        5.07707
H         -0.75060        0.32198        7.15954
H         -0.26601        4.99741        4.33811
H         -2.54714        1.61852        4.70438
H         -3.02798        2.53019        6.17954
H         -4.62003        3.01027        4.35187
H         -6.86788        2.12333        3.35477
H         -6.79880        3.56111        5.33071
H         -8.30569        2.68765        5.29074
H         -8.00286        5.46773        4.39918
H         -8.47578        5.01454        5.89638
H         -8.55420        2.23586        1.62321
H         -9.41207        3.55613        2.45174
H         -9.04287        0.87462        3.58667
H        -10.31241        1.30586        2.64879
H         -8.51312        3.89560        0.38633
H         -7.46670        4.78713       -1.73447
H         -6.72722        7.31249       -1.76373
H         -5.10095        7.59171        0.01976
H         -3.32157        7.07996        1.64479
H         -1.77580        6.09758        3.21495
H         -9.84022        5.70676       -0.49637
H         -8.73560        7.02322       -3.03254
H        -13.57980        8.83352       -4.05035
H        -11.64347        5.83638        0.14169
H        -14.73550        8.24599       -0.98497
H        -15.05328        6.72960       -1.90574
H        -14.81839        6.80285        1.41997
H        -13.67959        0.94202       -0.35941
H        -16.63392        1.80866        3.57396
H        -17.23998       -0.56038        3.63997
H        -17.06185       -2.83239        2.71284
H        -15.59819       -3.28345        0.76335
H        -14.30808       -1.45825       -0.26802
