132

C          3.23808        5.53682       -5.37888
C          2.39116        4.86620       -4.56680
C          2.55521        4.85383       -3.15208
N          2.69884        4.86405       -2.00039
C          1.37649        4.01559       -5.09752
N          0.59305        3.26950       -5.51650
C          4.52923        6.13046       -4.99100
C          5.41907        5.92913       -6.05967
C          6.74595        6.30711       -6.00091
C          7.17725        6.99876       -4.85897
C          6.24984        7.32225       -3.82251
C          4.92447        6.86284       -3.88688
C          6.67173        8.11522       -2.74723
C          7.99404        8.54946       -2.66149
C          8.91363        8.18417       -3.64097
C          8.50802        7.41863       -4.73550
C          4.67393        5.44941       -7.25243
O          5.12432        5.16671       -8.34100
C          3.23216        5.54195       -6.84002
C          2.36060        6.05044       -7.73063
C          1.18332        6.79951       -7.39038
S          1.15579        7.84356       -6.00527
C         -0.43048        8.34991       -6.29145
C         -0.94910        7.80072       -7.44219
C          0.01566        6.97920       -8.12965
C         -0.26666        6.42924       -9.50273
C         -1.75554        6.46384       -9.87533
C         -2.45340        7.76145       -9.44784
C         -2.36520        7.99788       -7.93259
C         -3.37671        7.14074       -7.15935
O         -4.52657        6.93212       -7.53006
O         -2.84649        6.73003       -5.96659
C         -3.70575        6.53059       -4.88168
C         -4.61470        7.44433       -4.46982
C         -5.27220        7.24340       -3.19266
C         -6.22585        7.96131       -2.53955
C         -7.14856        9.08100       -3.00313
C         -6.57139       10.50093       -2.78131
N         -6.45362       10.88056       -1.36867
C         -7.60215        8.89639       -4.48455
N         -8.52414        9.93109       -4.96880
C         -6.23898        7.38280       -1.18686
C         -6.74738        7.83464       -0.02862
C         -6.45502        7.14999        1.30337
C         -5.78256        5.79038        1.16383
C         -5.28806        5.33262        0.00155
C         -5.40526        6.18412       -1.14949
C         -4.81941        6.10787       -2.34956
C         -3.89051        5.13340       -2.87179
C         -3.36509        5.34955       -4.09176
C         -7.71132        7.02591        2.11663
C         -7.73976        7.09976        3.45820
C         -8.98065        6.95589        4.12733
S         -9.53836        5.38747        4.54882
C        -11.01342        5.99562        5.14655
C        -11.08768        7.36916        5.05164
C         -9.87466        7.93729        4.52528
C         -9.65150        9.42303        4.43072
C        -10.92091       10.24992        4.67001
C        -11.83075        9.65457        5.75571
C        -12.27177        8.21390        5.43391
C        -13.30909        8.20564        4.30760
O        -13.11292        8.59487        3.15989
O        -14.50583        7.70846        4.77324
C        -15.46640        7.63650        3.75929
C        -15.92339        6.49242        3.23889
C        -16.86319        6.22623        2.12918
C        -17.83455        7.05220        1.66690
C        -18.76483        6.66968        0.65696
N        -19.52304        6.36225       -0.16301
C        -18.04325        8.36008        2.19758
N        -18.21186        9.42011        2.63263
C        -16.62594        4.80979        1.71017
C        -15.76114        4.21160        2.63928
C        -15.33126        5.18414        3.65143
O        -14.60408        4.93597        4.59583
C        -15.31000        2.90547        2.54487
C        -15.70907        2.14500        1.44037
C        -16.57299        2.71803        0.47035
C        -17.03011        4.05030        0.61758
C        -16.93983        1.94629       -0.64383
C        -16.45818        0.63984       -0.79952
C        -15.60990        0.09077        0.15503
C        -15.23843        0.83653        1.27235
H          7.40604        6.11729       -6.84197
H          4.22007        7.11758       -3.09930
H          5.97151        8.41095       -1.96794
H          8.30665        9.16976       -1.82519
H          9.94859        8.50638       -3.55951
H          9.24207        7.15832       -5.49511
H          2.62972        6.04060       -8.78673
H         -0.92512        9.00834       -5.58885
H          0.10289        5.40194       -9.59199
H          0.29179        7.03869      -10.22585
H         -2.26705        5.61088       -9.41402
H         -1.85449        6.34176      -10.96075
H         -3.49959        7.73779       -9.77493
H         -1.98178        8.60519       -9.96926
H         -2.65911        9.03665       -7.72738
H         -4.74229        8.37963       -4.99668
H         -8.07598        9.00140       -2.41577
H         -7.22720       11.24763       -3.24209
H         -5.59193       10.59448       -3.26189
H         -7.36581       10.77993       -0.92522
H         -6.22885       11.87276       -1.31171
H         -8.09251        7.92171       -4.59777
H         -6.74964        8.91058       -5.16432
H         -9.37654        9.92652       -4.41162
H         -8.80516        9.70224       -5.92330
H         -7.29832        8.76467        0.01159
H         -5.75175        7.80100        1.84306
H         -5.67318        5.18713        2.06095
H         -4.79923        4.36918       -0.07230
H         -3.63228        4.25669       -2.29117
H         -2.65525        4.64687       -4.51815
H         -8.63403        6.85019        1.56561
H         -6.83933        7.25010        4.04636
H        -11.76378        5.31301        5.52476
H         -9.23203        9.68837        3.45298
H         -8.90468        9.70024        5.18589
H        -11.47622       10.33907        3.73007
H        -10.63859       11.27282        4.94644
H        -12.70736       10.29806        5.89277
H        -11.27966        9.65713        6.70623
H        -12.73295        7.79046        6.33595
H        -15.74181        8.63831        3.45423
H        -14.62999        2.51089        3.29583
H        -17.66913        4.45793       -0.15951
H        -17.60126        2.34785       -1.40689
H        -16.73940        0.06068       -1.67205
H        -15.22302       -0.91832        0.02531
H        -14.56922        0.38904        2.00382
