99

C          1.72512      -11.37457        4.00022
O          1.42799      -10.33874        3.44293
C          3.02763      -12.04314        3.87377
C          3.11408      -13.12766        4.75952
C          4.22945      -13.95190        4.69186
C          5.26503      -13.62525        3.80295
C          5.17211      -12.49650        2.97533
C          4.03386      -11.69892        2.98465
Br         6.61451      -12.05397        1.83748
C          1.88848      -13.13321        5.60624
C          1.79257      -13.68954        6.83936
C          2.84862      -14.43893        7.43488
N          3.70912      -15.06235        7.91294
C          0.64782      -13.51080        7.66658
N         -0.28984      -13.38990        8.33973
C          0.91787      -12.22005        4.94987
C         -0.42712      -12.22255        5.00459
C         -1.36453      -11.41242        4.22692
C         -1.35879      -10.06747        4.29596
C         -2.26456       -9.24001        3.53076
C         -3.24675       -9.81709        2.60934
C         -3.42646      -11.12476        2.42961
S         -2.52171      -12.34625        3.28137
C         -3.92132       -8.73193        2.01168
C         -3.43347       -7.54741        2.51193
C         -4.07730       -6.41785        1.98238
C         -5.03826       -6.80810        1.06223
S         -5.13431       -8.53035        0.88117
C         -2.39097       -7.87566        3.45254
C         -1.56133       -6.95378        4.18687
C         -1.56015       -5.61165        4.22162
C         -0.62279       -4.77299        5.01440
C          0.40890       -5.24366        5.87155
C          1.28357       -4.37554        6.59809
N          2.21643       -4.90369        7.43406
C          2.32443       -6.26233        7.53063
C          1.49875       -7.09432        6.83753
N          0.55377       -6.57829        6.02462
C          1.52813       -8.52766        6.92531
N          1.54680       -9.68842        6.98792
C          3.30940       -6.76363        8.43524
N          4.07165       -7.21300        9.18363
C          1.18464       -2.97414        6.48293
C          0.14123       -2.44124        5.67577
C         -0.77999       -3.35620        4.92796
N         -1.71364       -2.68506        4.22863
S         -1.45621       -1.06990        4.48283
N         -0.15640       -1.14236        5.50185
C          2.05684       -2.02718        7.18911
C          1.68796       -1.58132        8.40240
C          2.49211       -0.64081        9.14109
C          3.66488        0.00425        8.53046
C          4.16436       -0.31154        7.33468
S          3.49912       -1.56463        6.31971
C          4.13961        0.93857        9.47169
C          3.37285        0.87704       10.61100
C          3.78584        1.77990       11.60453
C          4.87799        2.50989       11.15392
S          5.36654        2.06887        9.54709
C          2.35405       -0.13107       10.40551
C          1.34632       -0.45918       11.39914
C          0.82119       -1.68550       11.54083
C         -0.21251       -2.06556       12.47751
C         -0.78399       -3.27944       12.54107
C         -2.07257       -3.45588       13.28687
O         -2.52062       -2.76343       14.17478
C         -2.72751       -4.62282       12.65890
C         -1.89907       -5.17459       11.66290
C         -0.57058       -4.51731       11.78087
C          0.61140       -5.14779       11.57473
C          0.70026       -6.38262       10.87525
N          0.74365       -7.34763       10.23107
C          1.82922       -4.66663       12.14086
N          2.80907       -4.28032       12.62609
C         -2.39313       -6.19330       10.86050
C         -3.66439       -6.71244       11.14152
C         -4.43543       -6.19577       12.19580
C         -3.98506       -5.11903       12.95437
Br        -6.10511       -6.98575       12.59646
H          4.33930      -14.84658        5.29700
H          6.15032      -14.25852        3.76737
H          3.92222      -10.84271        2.32718
H         -0.94037      -12.94991        5.63162
H         -0.61992       -9.57761        4.91931
H         -4.17668      -11.48148        1.73236
H         -3.88435       -5.38264        2.22665
H         -5.69305       -6.16934        0.48619
H         -0.83833       -7.49551        4.77057
H         -2.27897       -5.06096        3.62567
H          0.74146       -1.89249        8.82721
H          5.04588        0.19602        6.95628
H          3.33963        1.90874       12.58189
H          5.42404        3.28135       11.67983
H          1.04807        0.34893       12.06360
H          1.17346       -2.46064       10.87282
H         -0.60803       -1.26616       13.10655
H         -1.83268       -6.62184       10.03545
H         -4.04142       -7.54185       10.54388
H         -4.57785       -4.68702       13.75409
