146

C        -12.22756       -6.06189        4.75124
O        -11.04104       -6.30654        4.75807
C        -13.01535       -6.07484        5.97260
C        -14.17835       -5.31115        5.81439
C        -15.02769       -5.21091        6.90598
C        -14.68271       -5.86608        8.10513
C        -13.50897       -6.62915        8.20805
C        -12.65070       -6.74115        7.13016
Br       -13.08898       -7.51717        9.82075
C        -14.19789       -4.78777        4.41163
C        -14.90731       -3.72826        3.95892
C        -15.80307       -2.99937        4.79498
N        -16.52764       -2.40938        5.48120
C        -14.76239       -3.20977        2.63829
N        -14.65740       -2.79189        1.55812
C        -13.13486       -5.53091        3.67605
C        -13.10731       -5.86316        2.37108
C        -12.17432       -6.73024        1.61602
C        -10.82761       -6.85102        1.94801
C         -9.97872       -7.58797        1.14419
C        -10.43114       -8.20081       -0.03435
C        -11.76704       -8.12140       -0.38092
C        -12.63320       -7.38436        0.44682
C         -9.29856       -8.80692       -0.69899
C         -8.14207       -8.60947        0.09102
C         -8.48964       -7.84130        1.36452
C         -7.66820       -6.52596        1.48051
C         -7.85402       -5.51929        0.34662
C         -8.25663       -8.69283        2.64710
C         -9.06549       -9.98628        2.74807
C         -6.89668       -9.04592       -0.32896
C         -6.80133       -9.68688       -1.57023
C         -7.95311       -9.88331       -2.35820
C         -9.21040       -9.44551       -1.92275
C         -5.48928      -10.19405       -2.00459
C         -5.18378      -11.45223       -1.60078
C         -3.83730      -11.95336       -1.78035
C         -3.26217      -13.12833       -1.40040
C         -3.85618      -14.46899       -0.95593
C         -3.99074      -14.60217        0.58145
N         -4.85014      -13.60136        1.21324
C         -5.18659      -14.82768       -1.69028
N         -5.78345      -16.11335       -1.30263
C         -1.82595      -12.80435       -1.40313
C         -0.79947      -13.36529       -0.74363
C          0.57613      -12.70466       -0.69812
C          0.71968      -11.45867       -1.56304
C         -0.30912      -10.90623       -2.22338
C         -1.59938      -11.50710       -2.03996
C         -2.81440      -10.99718       -2.26283
C         -3.20213       -9.71453       -2.79914
C         -4.49326       -9.34699       -2.68638
C          1.63369      -13.71527       -1.01789
C          2.09324      -13.99325       -2.24977
C          3.14960      -14.96948       -2.50348
C          3.97099      -14.77741       -3.61990
C          4.91296      -15.74413       -3.92965
C          5.05455      -16.88889       -3.11793
C          4.26357      -17.07867       -1.99976
C          3.30443      -16.11701       -1.70168
C          6.00911      -17.78363       -3.71719
C          6.44295      -17.23987       -4.94630
C          5.88616      -15.80644       -5.11554
C          5.22185      -15.60152       -6.49913
C          4.04411      -16.51032       -6.83995
C          7.02738      -14.75674       -4.88347
C          6.63740      -13.27697       -4.99900
C          7.18263      -18.01907       -5.82598
C          7.51614      -19.32847       -5.44032
C          7.18648      -19.80922       -4.15858
C          6.41337      -19.03960       -3.29358
C          8.29330      -20.19019       -6.32375
C          7.94750      -21.07093       -7.27478
C          9.14102      -21.71728       -7.93250
O         10.31926      -21.55823       -7.68274
C          8.62432      -22.60884       -8.96479
C          7.22423      -22.56164       -9.00396
C          6.73335      -21.60237       -7.94325
C          5.42101      -21.35565       -7.69756
C          4.36430      -21.86102       -8.50912
N          3.49077      -22.25863       -9.17490
C          4.91760      -20.59993       -6.60727
N          4.34689      -20.06267       -5.75051
C          6.59165      -23.40486       -9.91433
C          7.35463      -24.24452      -10.74565
C          8.75082      -24.25079      -10.67166
C          9.40807      -23.42372       -9.77357
Br         9.74263      -25.41107      -11.78384
H        -15.95616       -4.65054        6.88085
H        -15.34315       -5.77713        8.96538
H        -11.73419       -7.32285        7.16595
H        -13.90156       -5.50035        1.71899
H        -10.38351       -6.36504        2.79974
H        -12.14307       -8.60386       -1.27711
H        -13.67956       -7.31457        0.15308
H         -6.59890       -6.76805        1.54320
H         -7.91712       -6.01660        2.42086
H         -7.55769       -5.93668       -0.61979
H         -7.23114       -4.63730        0.53029
H         -8.89030       -5.17637        0.27555
H         -8.49491       -8.08893        3.53383
H         -7.19261       -8.94940        2.72983
H        -10.14199       -9.78986        2.77127
H         -8.81451      -10.51079        3.67607
H         -8.85245      -10.66226        1.91549
H         -6.01957       -8.89213        0.29273
H         -7.87281      -10.38708       -3.31839
H        -10.08826       -9.59362       -2.54167
H         -5.86898      -12.00335       -0.96634
H         -3.14501      -15.25382       -1.26556
H         -2.99988      -14.53758        1.04374
H         -4.37483      -15.59661        0.83673
H         -4.55245      -12.67590        0.91812
H         -4.71153      -13.64089        2.22241
H         -5.01151      -14.85706       -2.77375
H         -5.94075      -14.06070       -1.51207
H         -5.14737      -16.88034       -1.49726
H         -6.62915      -16.27801       -1.84978
H         -0.94555      -14.24936       -0.13374
H          0.74956      -12.37494        0.33615
H          1.70582      -11.00619       -1.63136
H         -0.18890      -10.01458       -2.82582
H         -2.46242       -9.07169       -3.26168
H         -4.81751       -8.37872       -3.05863
H          2.03622      -14.22716       -0.15088
H          1.68783      -13.48387       -3.12110
H          3.86538      -13.88726       -4.23215
H          4.34842      -17.96811       -1.38586
H          2.65823      -16.28772       -0.84561
H          5.98100      -15.72365       -7.28373
H          4.85929      -14.57168       -6.58301
H          4.35619      -17.54738       -6.98061
H          3.59281      -16.17958       -7.78219
H          3.26378      -16.47634       -6.07510
H          7.83456      -14.92561       -5.60628
H          7.47683      -14.90112       -3.88999
H          6.35757      -13.01398       -6.02291
H          7.48521      -12.64110       -4.72210
H          5.81879      -12.99577       -4.33474
H          7.47206      -17.63269       -6.79731
H          7.50263      -20.79938       -3.83818
H          6.10345      -19.43751       -2.33308
H          9.35735      -20.05537       -6.10550
H          5.51635      -23.47831      -10.02144
H          6.84048      -24.90355      -11.44422
H         10.49018      -23.41520       -9.68442
