118

C        -13.34934       -0.52939        3.94098
C        -13.39227       -1.60975        4.75421
C        -14.60309       -2.30676        5.04661
N        -15.59094       -2.86575        5.28586
C        -12.21747       -2.17533        5.32164
N        -11.25910       -2.64480        5.78730
C        -14.49462        0.04944        3.17248
C        -13.96965        0.80753        2.12234
C        -14.73653        1.54589        1.23032
C        -16.13312        1.56374        1.43029
C        -16.67566        0.80125        2.47723
C        -15.87334        0.02557        3.35621
S        -18.39578        0.97275        2.53722
C        -18.39773        2.06657        1.25154
C        -17.15227        2.29958        0.73440
Br       -19.95109        2.88905        0.60362
C        -12.50236        0.81245        2.16662
O        -11.77683        1.18967        1.27249
C        -12.14532        0.21222        3.49555
C        -11.04767        0.56749        4.19148
C        -10.08127        1.59424        3.75231
C        -10.23971        2.91950        4.19768
C         -9.40182        3.91506        3.69438
C         -8.42524        3.60609        2.72539
C         -8.21949        2.29031        2.33133
C         -9.04775        1.28405        2.85209
C         -7.86694        4.83841        2.19940
C         -8.43580        5.94135        2.87004
C         -9.41407        5.43227        3.96560
C        -10.81211        6.07575        3.79323
C        -11.49698        5.81112        2.45495
C         -8.81827        5.73770        5.37412
C         -9.64524        5.26819        6.57425
C         -8.20270        7.25387        2.42555
C         -7.42330        7.47045        1.26970
C         -6.83032        6.35123        0.64482
C         -7.04380        5.04139        1.10372
C         -7.20021        8.79872        0.63519
C         -8.01669        9.86144        0.72659
N         -7.90504       11.10226        0.10640
C         -8.68382       12.21876        0.30661
S         -9.96376       12.21850        1.48284
C        -10.37768       13.81793        1.18167
N        -11.45975       14.43581        1.90098
O        -11.68830       15.62272        1.63508
O        -12.09099       13.75179        2.71871
C         -9.58912       14.39681        0.21881
C         -8.62986       13.46814       -0.33022
C         -7.72524       13.82911       -1.40504
C         -7.99150       14.77047       -2.33461
C         -7.20235       15.22474       -3.47483
C         -5.87650       15.36468       -3.63191
C         -5.24363       15.93264       -4.80698
C         -3.90152       15.95634       -4.74973
C         -3.36399       15.38565       -3.52746
S         -4.68702       14.91271       -2.45736
C         -2.07184       15.22326       -3.18452
C         -0.89200       15.63682       -3.92023
C          0.25812       15.41651       -3.26241
C          0.08100       14.77027       -1.97803
S         -1.59335       14.43102       -1.68191
C          1.07379       14.47139       -1.12627
C          0.94696       13.73639        0.12586
C          1.91935       13.42182        0.99372
C          3.35293       13.71021        1.03416
C          4.25113       13.55125        0.02835
C          5.64371       13.78856        0.20649
N          6.77139       14.00582        0.34389
C          3.90193       13.03439       -1.25099
N          3.62761       12.62804       -2.30169
C          3.70310       13.85032        2.47484
C          2.69149       13.24632        3.22893
C          1.55062       12.89903        2.35686
O          0.52171       12.35603        2.69979
C          2.75947       13.07648        4.60775
C          3.89886       13.58736        5.27691
C          4.86744       14.27642        4.52861
C          4.78424       14.42798        3.12400
S          6.12971       14.88062        5.54045
C          5.44348       14.18798        6.91637
C          4.26658       13.53255        6.66744
Br         6.22253       14.31313        8.61528
H        -14.26269        2.13427        0.44926
H        -16.35673       -0.51271        4.16448
H        -16.95532        2.97632       -0.08879
H        -10.87425        0.22086        5.20627
H        -11.03488        3.17510        4.89092
H         -7.46640        2.03860        1.59173
H         -8.91703        0.26254        2.50117
H        -10.72542        7.16183        3.92891
H        -11.49779        5.72643        4.57262
H        -10.82901        5.95770        1.60259
H        -12.34291        6.49508        2.33438
H        -11.88927        4.79040        2.41456
H         -8.67469        6.82129        5.47647
H         -7.81807        5.29188        5.46824
H        -10.67733        5.62561        6.53779
H         -9.20838        5.65114        7.50294
H         -9.65825        4.17752        6.65476
H         -8.67109        8.08619        2.94170
H         -6.22981        6.48566       -0.25353
H         -6.62270        4.20431        0.55650
H         -6.31576        8.87088        0.00690
H         -8.90783        9.76903        1.33976
H         -7.13418       11.16033       -0.55516
H         -9.69874       15.43116       -0.08731
H         -6.77940       13.29692       -1.43964
H         -8.96438       15.26246       -2.31000
H         -7.83400       15.57513       -4.29318
H         -5.81093       16.31125       -5.64750
H         -3.28073       16.34744       -5.54458
H         -0.93094       16.09365       -4.89953
H          1.23504       15.66403       -3.65723
H          2.06129       14.82041       -1.40348
H         -0.06900       13.44860        0.40677
H          1.96156       12.57302        5.14762
H          5.55835       14.98054        2.60279
H          3.68464       13.03102        7.43153
