120

C          0.27893       -1.96826      -13.68562
C         -0.00996       -3.25449      -13.99917
C          0.95759       -4.28893      -13.94306
N          1.76584       -5.13438      -13.90383
C         -1.32468       -3.66910      -14.36306
N         -2.39281       -3.99664      -14.67630
C          1.58268       -1.44106      -13.18307
C          1.34817       -0.21255      -12.55918
C          2.33209        0.58050      -11.98761
C          3.66213        0.12263      -12.07212
C          3.91893       -1.09784      -12.71778
C          2.89118       -1.89553      -13.28696
S          5.61168       -1.44945      -12.71705
C          5.97432       -0.02364      -11.88969
C          4.87289        0.73705      -11.60729
Br         7.71482        0.47218      -11.40839
C         -0.05588        0.18030      -12.69478
O         -0.57197        1.15370      -12.18526
C         -0.66724       -0.83804      -13.61174
C         -1.74723       -0.55763      -14.35888
C         -2.40739        0.75626      -14.32488
C         -3.46462        1.07229      -13.46740
C         -4.05669        2.38228      -13.44286
N         -5.07946        2.62070      -12.59318
C         -5.47084        1.62907      -11.73888
C         -4.90765        0.37459      -11.77881
N         -3.91920        0.08723      -12.66291
C         -5.27619       -0.72629      -10.92891
N         -5.54630       -1.63661      -10.26827
C         -6.46816        2.02879      -10.79195
N         -7.26758        2.39025      -10.03161
C         -3.60696        3.42075      -14.29264
C         -2.49320        3.15432      -15.13181
C         -1.88570        1.78438      -15.15463
N         -0.85928        1.67356      -16.01735
S         -0.64527        3.17138      -16.69414
N         -1.88425        4.00406      -15.97722
C         -4.28819        4.72419      -14.41792
C         -4.02030        5.82657      -13.70660
C         -4.83529        7.02534      -13.70590
C         -4.68156        7.75561      -12.59390
C         -3.75494        7.13823      -11.65846
S         -2.76565        5.95111      -12.51263
C         -3.80225        7.23328      -10.31959
C         -4.70945        8.03547       -9.52711
C         -4.81478        7.62147       -8.25451
C         -3.99283        6.46590       -7.95419
S         -2.90393        6.15378       -9.27640
C         -4.12123        5.71659       -6.84492
C         -3.41304        4.46857       -6.47583
C         -4.08230        3.52245       -5.67978
C         -3.41262        2.36344       -5.29006
C         -2.08896        2.11300       -5.72135
C         -1.42613        3.02269       -6.51538
C         -2.08001        4.20851       -6.85190
C         -1.64560        0.83107       -5.22408
C         -2.67874        0.25754       -4.46993
C         -3.91809        1.17569       -4.45773
C         -4.18822        1.53652       -2.97162
C         -5.38119        2.42497       -2.64867
C         -5.06376        0.40886       -5.15648
C         -4.74399        0.00620       -6.60573
C         -2.56248       -1.01026       -3.91279
C         -1.36473       -1.71241       -4.06019
C         -0.32724       -1.12753       -4.81951
C         -0.46707        0.13608       -5.41607
C         -1.14173       -3.02536       -3.42775
C         -2.02755       -3.67934       -2.65751
C         -1.73841       -4.93330       -2.00847
C         -1.44450       -6.10280       -2.58954
C         -1.32971       -6.54901       -3.98541
C         -2.09995       -6.17197       -5.03790
C         -1.90316       -6.66214       -6.36000
N         -1.72442       -7.04478       -7.44178
C         -3.25644       -5.34734       -4.89246
N         -4.23904       -4.73713       -4.79907
C         -0.43023       -7.74410       -3.96567
C         -0.27747       -8.15623       -2.63673
C         -0.89239       -7.18740       -1.71777
O         -0.89149       -7.24940       -0.50595
C          0.34839       -9.33702       -2.25451
C          0.82029      -10.18403       -3.28160
C          0.73362       -9.74382       -4.61132
C          0.15004       -8.50463       -4.97184
S          1.38424      -10.91612       -5.70050
C          1.67363      -12.00846       -4.44814
C          1.37751      -11.50681       -3.20894
Br         2.32679      -13.74010       -4.73370
H          2.08091        1.53283      -11.52843
H          3.16277       -2.80805      -13.80682
H          4.90874        1.69091      -11.09440
H         -2.14252       -1.23005      -15.11250
H         -5.13847        4.71311      -15.09011
H         -5.55665        7.25105      -14.48100
H         -5.26383        8.63678      -12.36061
H         -5.28287        8.85536       -9.93601
H         -5.47962        8.06716       -7.52780
H         -4.88223        6.01197       -6.12353
H         -5.11413        3.68819       -5.38515
H         -0.41879        2.84276       -6.87208
H         -1.50910        4.93089       -7.42527
H         -3.29319        2.01775       -2.55239
H         -4.32456        0.61343       -2.39178
H         -5.42807        3.32097       -3.26626
H         -5.30139        2.76372       -1.60810
H         -6.32313        1.87853       -2.74196
H         -5.98994        0.99375       -5.15094
H         -5.27928       -0.50939       -4.59389
H         -5.02309        0.80652       -7.29650
H         -5.29128       -0.90021       -6.87583
H         -3.68570       -0.21376       -6.77890
H         -3.41341       -1.42821       -3.38685
H          0.61523       -1.65382       -4.95272
H          0.33644        0.55161       -6.01415
H         -0.15206       -3.44987       -3.58070
H         -3.01250       -3.27764       -2.43102
H         -1.73633       -4.86420       -0.91818
H          0.41321       -9.61805       -1.20677
H          0.12515       -8.22732       -6.01875
H          1.50747      -12.06031       -2.28670
