104

C         -3.36592        2.40279        3.86699
C         -2.49505        3.04537        2.98141
C         -2.40644        2.64693        1.64262
C         -3.20613        1.61503        1.15344
C         -4.11388        1.01331        2.01441
C         -4.18028        1.38509        3.38806
C         -5.12955        0.45566        4.09143
C         -5.73732        0.64265        5.28579
C         -5.50495        1.79024        6.09503
N         -5.31132        2.72370        6.75772
C         -6.70927       -0.27090        5.78454
N         -7.49051       -1.02903        6.18627
C         -5.34944       -0.65859        3.12479
C         -5.08720       -0.08784        1.78277
C         -5.76919       -0.33420        0.63919
C         -6.89509       -1.20903        0.60891
N         -7.82433       -1.90348        0.56933
C         -5.46909        0.32091       -0.58731
N         -5.21349        0.83517       -1.59561
C         -5.35730       -1.96393        3.47029
C         -5.11114       -3.04362        2.56559
C         -4.23615       -3.13842        1.47474
C         -4.36627       -4.37101        0.80351
C         -5.22451       -5.20079        1.47694
S         -5.93536       -4.55578        2.82888
C         -5.29980       -6.42069        0.78687
C         -4.52925       -6.37011       -0.35042
C         -3.87640       -5.05449       -0.40090
C         -3.04181       -4.56080       -1.33685
C         -2.70869       -5.29492       -2.50356
N         -2.44239       -5.87963       -3.46942
C         -2.47229       -3.26251       -1.20195
N         -2.02569       -2.19955       -1.05119
C         -4.63640       -7.58508       -1.08376
C         -5.46719       -8.51298       -0.42895
S         -6.07886       -7.84254        1.04874
C         -5.85111       -9.86545       -0.83653
N         -5.46252      -10.36954       -1.99522
C         -6.01123      -11.61899       -2.02094
C         -6.75368      -11.85794       -0.81844
C         -7.32936      -13.21943       -0.82954
O         -7.99793      -13.77958        0.00863
C         -6.86140      -13.72683       -2.13345
C         -6.08059      -12.70500       -2.78951
N         -5.64223      -13.17320       -3.98678
C         -6.13222      -14.38431       -4.02490
C         -6.93147      -14.82874       -2.86606
C         -6.71655      -10.80619       -0.01931
C         -7.32972      -10.64267        1.25471
C         -8.65556      -10.72828        1.44246
C         -9.25617      -10.37964        2.68249
C         -8.68862       -9.86861        3.85338
C         -9.65982       -9.67280        4.84858
C        -10.92041       -9.98946        4.39640
S        -10.98561      -10.54718        2.83844
C        -11.83462       -9.84276        5.45585
C        -11.13899       -9.47683        6.58361
C         -9.72951       -9.28108        6.25090
C         -8.74087       -8.82304        7.04508
C         -8.99202       -8.48985        8.40440
N         -9.24147       -8.24424        9.51209
C         -7.41457       -8.63841        6.56580
N         -6.33160       -8.48996        6.17055
C        -11.96546       -9.50370        7.71936
C        -13.30205       -9.74148        7.38216
S        -13.46335      -10.06592        5.67394
C        -14.46670       -9.85189        8.20285
C        -14.64820       -9.20116        9.37002
C        -15.55675       -9.69212       10.44314
C        -16.84853      -10.07278       10.31509
C        -17.51335      -10.06329        9.05587
N        -18.04526      -10.06495        8.02073
C        -17.64868      -10.44566       11.43069
N        -18.29921      -10.75552       12.34019
C        -14.74978       -9.55180       11.70400
C        -13.61788       -8.72765       11.43104
C        -12.61925       -8.54388       12.37763
C        -12.77233       -9.13953       13.62932
C        -13.89666       -9.92469       13.91561
C        -14.88341      -10.15004       12.94984
C        -13.71754       -8.25565       10.02439
C        -13.25334       -7.09057        9.51500
C        -12.40005       -6.21777       10.24438
N        -11.69347       -5.50610       10.82937
C        -13.66889       -6.62552        8.23196
N        -14.02462       -6.23704        7.19823
H         -3.35385        2.71158        4.90609
H         -1.85884        3.85137        3.34274
H         -1.69819        3.13902        0.97858
H         -3.07803        1.29927        0.12250
H         -5.45725       -2.25805        4.51320
H         -3.57710       -2.33026        1.18606
H         -4.15956       -7.80670       -2.03378
H         -5.98210      -15.08229       -4.86275
H         -7.40936      -15.77151       -2.68826
H         -6.65449      -10.38372        2.06968
H         -9.30860      -11.01798        0.61965
H         -7.62842       -9.68029        3.96183
H        -11.62452       -9.37954        8.73822
H        -15.17335      -10.61718        7.88731
H        -11.71350       -7.98100       12.17156
H        -12.00193       -9.00450       14.38647
H        -13.98955      -10.38596       14.89745
H        -15.70508      -10.81152       13.20164
