108

C         -8.92736       -0.80999       -7.57880
C         -9.39595       -1.81727       -8.43164
C         -9.95205       -2.99916       -7.92102
C        -10.09309       -3.18281       -6.54630
C         -9.68006       -2.16198       -5.70326
C         -9.05704       -0.98440       -6.20849
C         -8.53990       -0.18756       -5.03943
C         -8.24249        1.13072       -4.99477
C         -8.39362        1.97801       -6.12561
N         -8.53154        2.67124       -7.05011
C         -7.85647        1.76431       -3.78056
N         -7.52672        2.25791       -2.78452
C         -8.59424       -1.13154       -3.88891
C         -9.70100       -2.05053       -4.22439
C        -10.71107       -2.42775       -3.40734
C        -10.82952       -1.87691       -2.10131
N        -10.96391       -1.35912       -1.06375
C        -11.76843       -3.27425       -3.84779
N        -12.60818       -3.98671       -4.20542
C         -7.58137       -1.34644       -3.01479
C         -7.36135       -2.55567       -2.26083
C         -6.68281       -2.72628       -1.03913
C         -6.55752       -4.10045       -0.67969
C         -7.15127       -4.89542       -1.62950
S         -7.75506       -4.11830       -2.94499
C         -6.99031       -6.24344       -1.27477
C         -6.25698       -6.33368       -0.11841
C         -5.97932       -4.96918        0.35870
C         -5.35321       -4.59674        1.49733
C         -4.86141       -5.55267        2.42126
N         -4.45039       -6.33356        3.17623
C         -5.17705       -3.22323        1.82592
N         -5.02090       -2.10354        2.08626
C         -5.99831       -7.69812        0.19588
C         -6.55605       -8.57929       -0.75675
S         -7.50040       -7.67711       -1.91740
C         -6.50160      -10.06678       -0.87793
C         -6.50820      -10.78967       -2.10406
C         -6.49274      -12.23588       -2.17530
N         -6.52392      -12.84475       -3.38653
C         -6.59395      -12.09281       -4.51504
C         -6.60164      -10.72773       -4.45259
N         -6.53062      -10.08879       -3.26023
C         -6.71581       -9.88918       -5.60787
N         -6.82370       -9.22650       -6.55678
C         -6.67440      -12.80160       -5.75530
N         -6.74846      -13.32809       -6.78670
C         -6.44270      -13.05036       -1.02333
C         -6.46352      -12.36461        0.23468
C         -6.48022      -10.85432        0.30417
N         -6.48313      -10.39725        1.56911
S         -6.45873      -11.70395        2.57517
N         -6.48813      -12.91682        1.46099
C         -6.33855      -14.53584       -1.07205
C         -6.84074      -15.46938       -1.95791
C         -6.43863      -16.85501       -1.70145
C         -6.62119      -18.04806       -2.45145
C         -7.13966      -17.99008       -3.85603
C         -7.98231      -18.86121       -4.53855
C         -8.21619      -18.50181       -5.89730
C         -7.61413      -17.31221       -6.22960
S         -6.61584      -16.75989       -4.95588
C         -7.72815      -16.53168       -7.49771
Cl        -9.17912      -19.46186       -6.93781
C         -6.27331      -19.30015       -1.88534
C         -5.79596      -19.41374       -0.56559
C         -5.54174      -18.21471        0.18807
C         -5.79772      -16.95376       -0.45465
S         -5.30689      -15.35013       -0.00502
C         -5.01423      -18.30878        1.62759
C         -4.68710      -19.39612        2.44186
C         -4.23583      -19.08198        3.76186
C         -4.22408      -17.73453        3.98720
S         -4.76029      -16.90234        2.61734
C         -3.82833      -16.97367        5.20388
Cl        -3.78719      -20.29544        4.88254
C         -5.65149      -20.81862       -0.25153
C         -5.90915      -21.71419       -1.26272
S         -6.32271      -20.86279       -2.65779
C         -5.82038      -23.16014       -1.20487
C         -6.10598      -24.08171       -2.19901
C         -5.88605      -25.43100       -1.79124
S         -6.16600      -26.77507       -2.89039
C         -5.74062      -28.20620       -1.87668
C         -5.44749      -25.50799       -0.49217
S         -5.30274      -23.97060        0.22666
H         -8.45305        0.06021       -8.01943
H         -9.30365       -1.69589       -9.50985
H        -10.26839       -3.78547       -8.60455
H        -10.49330       -4.12038       -6.17214
H         -6.75845       -0.63561       -2.95758
H         -6.28753       -1.88578       -0.47926
H         -5.41671       -8.04178        1.04149
H         -7.45682      -15.18110       -2.79990
H         -8.41695      -19.74941       -4.09929
H         -7.83423      -17.19251       -8.36392
H         -6.85065      -15.90509       -7.67693
H         -8.61353      -15.88603       -7.45892
H         -4.74519      -20.43051        2.17468
H         -4.02867      -17.54773        6.11352
H         -4.38382      -16.03295        5.28557
H         -2.75964      -16.73794        5.17189
H         -5.34440      -21.21339        0.69314
H         -6.45421      -23.80307       -3.18661
H         -5.87306      -29.11989       -2.46085
H         -6.39190      -28.26113       -0.99966
H         -4.69663      -28.15257       -1.55470
H         -5.19761      -26.38177        0.09137
