98

C         -1.02296        1.85650        0.25361
C         -0.43380        1.45490       -0.87952
C          0.83686        0.76330       -0.84830
C          1.33667        0.17779        0.26696
C          0.48724        0.24745        1.55229
C         -0.41004        1.53300        1.58660
N         -1.47929        1.49568        2.59908
C         -1.93321        0.31901        2.86267
C         -1.40904       -0.93834        2.24005
N         -0.28377       -1.01882        1.61637
F         -2.14997       -2.04814        2.35099
F         -2.93248        0.21646        3.74793
C          2.62344       -0.47743        0.15261
C          3.19964       -1.11417       -0.92998
C          4.48031       -1.76388       -0.71674
C          5.30230       -2.60318       -1.55476
C          4.78357       -3.08458       -2.91733
C          3.58753       -2.87508       -3.60655
C          3.44638       -3.59470       -4.84046
C          4.52163       -4.40254       -5.08453
S          5.74606       -4.06156       -3.98455
C          4.76397       -5.43497       -6.12878
Cl         2.05049       -3.46435       -5.81770
C          6.59516       -2.99270       -1.06013
C          7.10740       -2.52602        0.16775
C          6.26090       -1.73396        1.00071
C          4.94928       -1.40557        0.56291
S          3.71907       -0.53634        1.44086
C          6.75780       -1.22182        2.33093
C          6.09988       -1.03853        3.54578
C          6.91110       -0.47578        4.58083
C          8.19357       -0.22614        4.15723
S          8.37547       -0.63124        2.51286
C          9.34921        0.35872        4.90068
Cl         6.29243       -0.14590        6.14367
C          8.48222       -2.97586        0.33616
C          8.97989       -3.78251       -0.65664
S          7.77218       -4.07653       -1.76505
C         10.28504       -4.38996       -0.76410
C         10.97594       -4.79837       -1.91295
C         12.22699       -5.37117       -1.57877
C         12.41952       -5.38419       -0.21564
S         11.19209       -4.72680        0.68034
C         13.65975       -5.98344        0.07761
C         14.26786       -6.34441       -1.10177
C         13.39559       -5.97827       -2.22624
C         13.61710       -6.16896       -3.53523
C         12.66823       -5.75755       -4.53110
N         11.89261       -5.42617       -5.33794
C         14.80284       -6.77924       -4.02522
N         15.78169       -7.30346       -4.38181
C         15.52636       -6.94531       -0.86025
C         15.79988       -7.03148        0.50926
S         14.50470       -6.35351        1.45812
C         16.95420       -7.55802        1.18251
C         17.96974       -6.69442        1.38958
C         19.17016       -7.06679        2.11057
C         19.53813       -8.35079        2.29721
C         18.61681       -9.44813        1.77969
C         17.11684       -8.97395        1.72873
N         16.24893       -9.94628        1.02776
C         16.82927      -10.58956        0.07263
C         18.26237      -10.38498       -0.31917
N         19.14441       -9.85329        0.45675
F         18.64746      -10.78413       -1.53672
F         16.11686      -11.50588       -0.59375
C         20.79688       -8.73018        2.98426
C         20.98846       -9.91525        3.71853
N         22.11871      -10.35775        4.36790
C         23.26308       -9.62255        4.34152
C         23.24797       -8.40293        3.64145
C         21.98591       -7.94180        2.94311
N         22.17208       -6.75969        2.32351
S         23.73269       -6.28630        2.59931
N         24.28004       -7.55324        3.51490
H         -1.93728        2.44160        0.22134
H         -0.86166        1.69789       -1.84897
H          1.36950        0.75830       -1.79516
H          1.13675        0.28201        2.43536
H          0.23857        2.37872        1.85192
H          2.66033       -1.11130       -1.85639
H          2.77473       -2.25997       -3.27678
H          3.89385       -5.57018       -6.77494
H          4.97586       -6.40330       -5.65740
H          5.62098       -5.16964       -6.75665
H          5.05709       -1.27236        3.71265
H          9.01344        1.02904        5.69815
H          9.98800        0.94920        4.23454
H          9.96352       -0.42823        5.35166
H          9.11339       -2.71103        1.16826
H         10.57727       -4.67844       -2.91684
H         16.22044       -7.30536       -1.60873
H         17.91728       -5.65861        1.06012
H         19.77212       -6.23189        2.45898
H         18.64548      -10.33030        2.42825
H         16.75818       -8.94821        2.76862
H         20.16708      -10.61887        3.84579
H         24.12978      -10.01060        4.85961
