142

C          9.84425       -2.84149        6.52650
C          9.45186       -3.05481        7.83885
F          9.83484       -4.18147        8.45998
C          8.68224       -2.12458        8.52219
C          8.24798       -0.96965        7.86403
C          8.60210       -0.73369        6.52905
C          9.45648       -1.66324        5.86478
C          9.93571       -1.39928        4.57815
C          9.55463       -0.22325        3.95720
C          8.58105        0.60441        4.54606
C          8.12735        0.39842        5.83020
C          8.11119        1.60312        3.54367
O          7.26231        2.45376        3.69760
C          8.83444        1.23987        2.27272
C          9.96459        0.40863        2.69657
C         11.24057        0.49313        2.25460
C         11.62449        1.48038        1.29840
N         11.93967        2.32903        0.57657
C         12.29250       -0.27797        2.82295
N         13.13230       -0.92547        3.29742
C          8.25741        1.40129        1.06982
C          8.63587        0.67085       -0.10344
S          9.07991       -1.00766       -0.02997
C          9.40688       -1.14980       -1.71117
C          9.03336        0.00631       -2.34395
C          8.60386        0.97503       -1.42943
C          8.21183        2.13495       -2.14724
C          8.33150        1.99822       -3.54352
C          8.00452        2.97278       -4.57208
O          8.09142        2.81447       -5.78448
O          7.62608        4.13759       -3.97613
C          7.60775        5.26421       -4.84862
S          9.01502        0.47788       -4.08590
C          9.95938       -2.34236       -2.30266
C          9.80568       -2.82883       -3.57858
C         10.61907       -3.98605       -3.89021
C         10.82940       -4.66741       -5.11609
C         10.25186       -4.09645       -6.37672
C         10.10753       -2.77095       -6.77307
C          9.59453       -2.61533       -8.09584
C          9.42343       -3.82378       -8.72874
S          9.55420       -5.10311       -7.60466
C          9.12702       -4.09247      -10.16771
Cl         9.32497       -1.07858       -8.79781
C         11.63076       -5.83238       -5.13780
C         12.16295       -6.39193       -3.96224
C         12.01148       -5.67325       -2.74373
C         11.25354       -4.47065       -2.73406
S         10.93311       -3.40451       -1.40950
C         12.65304       -6.20701       -1.49230
C         12.77393       -7.51110       -1.02021
C         13.46492       -7.61945        0.22799
C         13.82731       -6.39326        0.73273
S         13.49754       -5.15988       -0.39823
C         14.47702       -6.06605        2.03910
Cl        13.76741       -9.12876        0.97879
C         12.78390       -7.66540       -4.26117
C         12.75467       -8.01493       -5.59084
S         12.17166       -6.73028       -6.51523
C         13.23375       -9.23107       -6.18629
C         14.24750      -10.02275       -5.71443
C         14.59724      -11.11854       -6.58230
C         15.65663      -12.05242       -6.51689
C         16.65391      -12.01373       -5.39709
C         17.20885      -13.06280       -4.66990
C         18.07506      -12.64712       -3.61264
C         18.13776      -11.27653       -3.51158
S         17.35620      -10.53323       -4.83836
C         18.80198      -10.45277       -2.45833
C         15.74135      -13.06135       -7.49539
C         14.75994      -13.27089       -8.46718
C         13.74123      -12.28732       -8.58617
C         13.68518      -11.21927       -7.64985
S         12.54820       -9.91378       -7.57504
C         12.77502      -12.33055       -9.72598
C         12.27235      -11.29557      -10.50886
C         11.38938      -11.72658      -11.54578
C         11.29970      -13.09680      -11.59986
S         12.04828      -13.80795      -10.24475
C         10.64259      -13.94912      -12.63094
C         15.02117      -14.53577       -9.14500
C         16.19610      -15.17660       -8.78763
S         17.05067      -14.10237       -7.79330
C         16.68003      -16.44452       -9.25618
C         17.95628      -16.85031       -9.28491
C         18.37899      -17.90735      -10.27102
O         17.72183      -18.82291      -10.70637
C         19.75305      -17.51377      -10.68347
C         20.54978      -18.09166      -11.65459
C         21.76122      -17.45740      -11.97175
C         22.10380      -16.21493      -11.35327
C         23.27452      -15.55174      -11.73953
C         24.11684      -16.12601      -12.68303
C         23.82343      -17.35723      -13.25319
C         22.64504      -18.01912      -12.90487
F         25.23566      -15.48259      -13.04140
C         21.28764      -15.67504      -10.34865
C         20.15324      -16.37052       -9.97196
C         19.20937      -16.20347       -8.85514
C         19.57880      -15.92719       -7.58785
C         18.77400      -16.30202       -6.46782
N         18.12091      -16.60346       -5.55563
C         20.80313      -15.27581       -7.28424
N         21.77764      -14.69097       -7.06244
H         10.45050       -3.59014        6.03336
H          8.42353       -2.30519        9.56062
H          7.64093       -0.25167        8.41550
H         10.60063       -2.10286        4.08409
H          7.42136        1.09111        6.28170
H          7.36801        2.02875        0.98755
H          7.83911        3.04354       -1.68704
H          6.66800        5.30077       -5.40568
H          8.46532        5.25352       -5.52925
H          7.68770        6.15767       -4.22423
H          9.15145       -2.35967       -4.29930
H         10.39008       -1.92505       -6.16043
H          8.18237       -3.62992      -10.46846
H          9.07056       -5.16262      -10.39301
H          9.92427       -3.67390      -10.79505
H         12.38399       -8.37912       -1.53490
H         13.84829       -6.39176        2.87638
H         14.64938       -4.99115        2.16093
H         15.44479       -6.57062        2.12323
H         13.21437       -8.32631       -3.52302
H         14.77040       -9.77763       -4.80110
H         16.98822      -14.10770       -4.85475
H         18.57600      -13.32397       -2.92912
H         19.14207      -11.07805       -1.62443
H         18.10664       -9.71412       -2.04289
H         19.67206       -9.92583       -2.86074
H         12.52466      -10.25203      -10.36947
H         10.90005      -11.06211      -12.24845
H          9.95011      -13.36303      -13.24377
H         10.08051      -14.77062      -12.17680
H         11.39752      -14.37789      -13.30097
H         14.36874      -14.98611       -9.87875
H         15.94591      -17.06595       -9.77435
H         20.23177      -19.00568      -12.14721
H         23.55155      -14.59221      -11.31059
H         24.51140      -17.79163      -13.97152
H         22.42666      -18.98133      -13.36408
H         21.55724      -14.73625       -9.87277
