104

C          2.22330        0.31433        1.09794
C          1.64770        1.30711        0.40158
C          0.76031        1.05476       -0.71783
C          0.42484       -0.33462       -1.09383
C          0.90451       -1.42939       -0.50686
S          2.02784       -1.39654        0.82480
C         -0.46790       -0.25035       -2.17473
C         -0.69510        1.07009       -2.47589
C         -1.60834        1.23054       -3.54640
C         -2.01778       -0.00878       -4.01709
S         -1.30586       -1.32776       -3.14486
C          0.07953        1.88419       -1.56437
C          0.01341        3.33482       -1.62510
C          0.66346        4.21937       -0.85371
C          0.56076        5.69211       -0.82632
C          1.62705        6.49132       -0.38430
C          1.53922        7.92508       -0.28017
N          2.66184        8.57917        0.09317
C          3.77757        7.89669        0.46537
C          3.84640        6.52583        0.34240
N          2.77045        5.83197       -0.07322
C          5.08990        5.74377        0.64355
C          4.92154        8.69450        1.01285
C          0.32731        8.65402       -0.54284
C         -0.79637        7.82937       -0.91114
C         -0.65801        6.34283       -1.10957
N         -1.79421        5.76443       -1.54575
S         -2.92639        6.94701       -1.69166
N         -2.07527        8.21931       -1.07907
C          0.16754       10.15833       -0.45891
C          0.72178       11.00337        0.54573
C          0.53212       12.44316        0.57930
N          1.08030       13.15973        1.57909
C          1.86735       12.56136        2.49479
C          2.09211       11.20468        2.44218
N          1.46021       10.43764        1.52306
C          3.02583       10.51958        3.39237
C          2.44210       13.43395        3.56547
C         -0.23473       13.15871       -0.36844
C         -0.85458       12.35148       -1.36254
C         -0.61463       10.86003       -1.43664
N         -1.18967       10.33111       -2.53430
S         -2.17704       11.46915       -3.19535
N         -1.70117       12.77721       -2.32085
C         -0.42005       14.65567       -0.41150
C         -1.61914       15.21602       -0.69032
C         -1.82022       16.64082       -0.78452
C         -0.76094       17.60223       -0.46211
C          0.48702       17.25890       -0.15208
S          1.05200       15.61319       -0.17384
C         -1.32128       18.88645       -0.57810
C         -2.63858       18.77876       -0.97293
C         -3.29875       20.01587       -1.05376
C         -2.40651       21.04154       -0.74581
S         -0.82646       20.46512       -0.35149
C         -2.93583       17.36696       -1.12101
C         -4.22592       16.81641       -1.48020
C         -5.11158       17.41513       -2.30074
C         -6.44723       16.92672       -2.63712
C         -7.00467       17.32802       -3.79933
C         -8.34264       16.95462       -4.19030
C         -9.20097       16.14786       -3.31718
C         -8.84265       15.67546       -2.12546
S         -7.27782       15.94404       -1.42898
C        -10.42382       15.98415       -3.99233
C        -10.37394       16.63319       -5.20212
C        -11.54639       16.45753       -5.95755
C        -12.46364       15.69391       -5.24781
S        -11.86691       15.19810       -3.69812
C         -9.06823       17.25727       -5.31108
C         -8.59185       18.03429       -6.43737
C         -9.35222       18.75794       -7.26772
H          2.87415        0.58634        1.91549
H          1.86746        2.29433        0.71191
H          0.60564       -2.41412       -0.84431
H         -1.95151        2.17010       -3.95708
H         -2.70669       -0.22077       -4.82294
H         -0.65841        3.71337       -2.39297
H          1.37431        3.88049       -0.12145
H          5.96843        6.23786        0.21555
H          5.03582        4.74485        0.19774
H          5.23226        5.63310        1.72288
H          4.62103        9.72739        1.20548
H          5.75061        8.71094        0.30198
H          5.26760        8.27039        1.96334
H          4.00193       11.02033        3.40305
H          3.19587        9.48065        3.09764
H          2.61027       10.51853        4.40199
H          2.02514       14.44434        3.50567
H          3.52997       13.50592        3.47342
H          2.18716       13.03027        4.55044
H         -2.49605       14.60223       -0.86277
H          1.22057       18.02159        0.08890
H         -4.33735       20.18218       -1.30222
H         -2.61639       22.10525       -0.72860
H         -4.45692       15.85163       -1.04546
H         -4.82605       18.33820       -2.79496
H         -6.44799       17.96006       -4.48473
H         -9.53740       15.08830       -1.53347
H        -11.73527       16.84089       -6.95107
H        -13.45355       15.38892       -5.55702
H         -7.51570       18.04983       -6.59686
H        -10.42993       18.83614       -7.15766
H         -8.90460       19.31730       -8.08634
