89

C         -1.11645       -4.38014        6.71265
C         -0.53624       -3.77098        5.61239
C         -0.88346       -4.10778        4.25305
N         -0.26476       -3.42610        3.25962
C          0.68839       -2.50395        3.56670
C          1.01329       -2.21678        4.87035
N          0.39014       -2.84209        5.90281
C          2.01464       -1.25780        5.22909
N          2.83251       -0.47652        5.50081
C          1.32924       -1.87413        2.45092
N          1.86199       -1.35137        1.56171
C         -1.83450       -5.12653        3.95144
C         -2.43783       -5.78082        5.07057
C         -2.06839       -5.38547        6.46943
N         -2.71571       -6.07801        7.41662
S         -3.69867       -7.15357        6.62889
N         -3.33536       -6.78342        5.05639
C         -2.18653       -5.59949        2.58823
C         -3.39660       -6.11777        2.09558
C         -3.25844       -6.62236        0.78017
C         -1.99661       -6.38255        0.29311
S         -0.94942       -5.67222        1.35895
C         -1.88672       -6.94337       -0.99036
C         -3.05087       -7.59743       -1.30592
C         -4.01931       -7.37854       -0.22360
C         -5.30793       -7.76552       -0.17479
C         -5.90656       -8.50529       -1.23351
N         -6.39361       -9.11299       -2.09320
C         -6.14305       -7.43389        0.92735
N         -6.82659       -7.15263        1.82123
C         -2.92050       -8.30934       -2.52517
C         -1.64927       -8.13830       -3.09755
S         -0.72810       -6.97523       -2.16424
C         -1.03763       -8.74313       -4.31389
C          0.35146       -8.99568       -4.46203
C          0.91573       -9.48400       -5.68567
N          2.26646       -9.53135       -5.79288
C          3.06881       -9.24544       -4.74134
C          2.52564       -8.88051       -3.54866
N          1.18144       -8.76004       -3.41423
C          3.31032       -8.59088       -2.38732
N          3.96906       -8.36542       -1.45851
C          4.47679       -9.37307       -4.96898
N          5.62143       -9.46758       -5.13932
C          0.12454       -9.91355       -6.78956
C         -1.27486       -9.69636       -6.67710
C         -1.86502       -9.08293       -5.42514
N         -3.19497       -8.91171       -5.52420
S         -3.67075       -9.49168       -6.99566
N         -2.21197       -9.97632       -7.59931
C          0.69608      -10.50844       -8.02925
C          0.27571      -10.50353       -9.37444
C          1.34264      -10.87653      -10.23715
C          2.47197      -11.14036       -9.50765
S          2.20158      -11.40604       -7.90712
C          3.59268      -11.07875      -10.34464
C          3.17846      -10.88040      -11.63667
C          1.70991      -10.87608      -11.65725
C          0.89441      -10.98333      -12.72211
C          1.41255      -11.07840      -14.04282
N          1.84476      -11.16598      -15.11631
C         -0.51250      -11.11205      -12.56255
N         -1.65934      -11.23063      -12.42975
C          4.28487      -10.68015      -12.49671
C          5.49900      -10.66655      -11.78845
S          5.21074      -10.90290      -10.08195
C          6.88775      -10.42375      -12.25226
C          8.04986      -10.99460      -11.65552
C          9.37744      -10.69466      -12.12168
N         10.46969      -11.21409      -11.53293
C         10.29035      -12.02665      -10.45646
C          9.03560      -12.33246       -9.99633
N          7.92838      -11.84351      -10.60971
C          8.79587      -13.15687       -8.84908
N          8.61877      -13.82617       -7.91723
C         11.48073      -12.54264       -9.85022
N         12.43066      -12.97918       -9.34609
C          9.62125       -9.85373      -13.19593
C          8.50967       -9.25860      -13.82122
C          7.11185       -9.53339      -13.34558
N          6.19800       -8.84352      -14.05264
S          7.01101       -7.97881      -15.20892
N          8.57082       -8.41495      -14.86053
H         -0.84170       -4.10660        7.72598
H         -4.29287       -6.18203        2.70076
H         -3.67744       -8.95222       -2.95979
H         -0.67345      -10.09673       -9.70378
H          4.22516      -10.50044      -13.56386
H         10.62980       -9.64834      -13.53834
