115

C         -5.06455       -2.67903       -0.55511
C         -4.11603       -2.71406        0.40496
C         -3.56538       -3.93976        0.87276
N         -3.12426       -4.94555        1.24679
C         -3.55385       -1.52028        0.94327
N         -3.11067       -0.54339        1.38557
C         -5.63590       -3.82974       -1.30577
C         -6.04688       -3.35418       -2.55334
C         -6.76924       -4.10061       -3.47273
C         -7.16661       -5.39728       -3.07434
C         -6.73427       -5.89033       -1.83027
C         -5.93940       -5.13053       -0.93469
S         -7.34186       -7.48449       -1.55114
C         -8.22367       -7.47004       -2.98942
C         -8.04068       -6.33292       -3.72903
Br        -9.35532       -8.86905       -3.51004
C         -5.76580       -1.91271       -2.64421
O         -5.49993       -1.31923       -3.66718
C         -5.62623       -1.47468       -1.21436
C         -6.25622       -0.49063       -0.52655
N         -7.26340        0.53916       -0.95531
C         -7.56900        0.37761       -2.41494
C         -8.56545       -0.50753       -2.89666
S         -9.28674       -1.81536       -1.92873
C         -9.22865       -1.10121       -0.31455
C        -10.16199       -1.60685        0.60680
C        -10.29655       -1.04187        1.86864
C         -9.49080        0.03273        2.22198
C         -8.52804        0.51816        1.32784
C         -8.35424       -0.05231        0.04471
C         -8.99796       -0.44887       -4.23364
C         -8.44964        0.46961       -5.11995
C         -7.42590        1.29961       -4.68919
C         -6.98349        1.24357       -3.36204
C         -6.33683        1.76690       -0.51233
C         -6.78759        3.23165       -0.67625
C         -7.99111        3.67898       -1.23146
C         -8.29018        5.05947       -1.55344
N         -9.44891        5.35056       -2.18252
C        -10.33897        4.35211       -2.38527
C        -10.06920        3.05957       -2.03104
N         -8.90744        2.73098       -1.44612
C         -7.42860        6.14974       -1.21265
C         -6.22176        5.74042       -0.53903
C         -5.93469        4.28579       -0.25362
N         -4.80523        4.10225        0.45227
S         -4.20032        5.59861        0.79987
N         -5.22497        6.52626       -0.09414
N         -7.84468        7.74287       -1.53735
C         -9.32458        8.34891       -1.61769
C        -10.37328        7.89106       -0.76634
S         -9.99752        6.94022        0.70078
C         -8.45260        7.79372        1.00184
C         -8.16183        8.11978        2.33510
C         -7.05728        8.90447        2.63597
C         -6.26657        9.39148        1.60384
C         -6.55366        9.06858        0.26818
C         -7.62300        8.21724       -0.08582
C        -11.70017        8.29991       -0.94859
C        -12.01811        9.19249       -1.96439
C        -11.00698        9.69898       -2.77465
C         -9.67629        9.29419       -2.59675
C         -6.83140        8.33734       -2.48895
C         -7.05629        8.12174       -3.97780
C         -6.38557        8.50072       -5.08884
C         -5.09734        9.14580       -5.46766
C         -4.16447        9.76165       -4.70650
C         -2.82822       10.01602       -5.14846
N         -1.72884       10.19555       -5.48548
C         -4.49341       10.36147       -3.46919
N         -4.75841       10.99450       -2.52669
C         -5.04035        9.16205       -6.97673
C         -6.20920        8.59919       -7.48051
C         -7.06590        8.12374       -6.38945
O         -8.13888        7.57504       -6.54546
C         -6.58091        8.63174       -8.82587
C         -5.74211        9.32146       -9.73115
C         -4.56319        9.89424       -9.23714
C         -4.18764        9.81041       -7.87132
S         -3.70268       10.73028      -10.48153
C         -4.88221       10.36346      -11.63040
C         -5.90626        9.60095      -11.13333
Br        -4.79793       10.95783      -13.40522
H         -7.11106       -3.65454       -4.40246
H         -5.67891       -5.54275        0.03417
H         -8.52941       -6.14337       -4.67732
H         -6.05962       -0.51903        0.55522
H         -7.95986        1.29543       -0.80594
H        -10.81481       -2.43326        0.32941
H        -11.04409       -1.42462        2.55861
H         -9.61605        0.50115        3.19529
H         -7.93042        1.36230        1.65632
H         -9.77046       -1.12569       -4.59141
H         -8.80031        0.51603       -6.14644
H         -6.96289        1.99642       -5.38202
H         -6.16801        1.90423       -3.09447
H         -5.38008        1.68733       -1.05523
H         -6.09285        1.66439        0.55627
H        -11.29133        4.62744       -2.82223
H        -10.75774        2.24077       -2.20524
H         -8.44627        7.13589       -2.12445
H         -8.80869        7.77929        3.13952
H         -6.82493        9.14947        3.66828
H         -5.40001       10.00864        1.82881
H         -5.86004        9.45833       -0.46802
H        -12.48138        7.94868       -0.27942
H        -13.04638        9.51533       -2.10283
H        -11.25188       10.41371       -3.55688
H         -8.94198        9.73630       -3.25861
H         -5.82433        7.96587       -2.26582
H         -6.83580        9.42336       -2.35573
H         -8.00107        7.60419       -4.16495
H         -7.52859        8.20774       -9.14826
H         -3.28857       10.33467       -7.57267
H         -6.75365        9.27455      -11.72431
