91

C          0.08583        2.65310        1.80237
C          1.00269        2.26242        2.72422
C          2.19867        1.57275        2.38117
N          3.17540        1.00044        2.11284
C          0.87654        2.54858        4.11336
N          0.77738        2.79034        5.24736
C          0.20690        2.50745        0.31434
C         -0.78104        3.28733       -0.28829
C         -0.97156        3.39825       -1.66159
C         -0.10520        2.67248       -2.50386
C          0.89366        1.88202       -1.91662
C          1.06120        1.77991       -0.50924
S          1.84224        1.08819       -3.12475
C          0.94129        1.77455       -4.37624
C         -0.06783        2.58804       -3.93696
Br         1.28922        1.45275       -6.18830
C         -1.61416        3.95095        0.71560
O         -2.47870        4.76119        0.45610
C         -1.15918        3.42577        2.05061
C         -1.88868        3.56800        3.17187
C         -3.11256        4.28815        3.20604
C         -3.32369        5.62463        3.46640
C         -4.70044        5.99157        3.38768
Cl        -5.15538        7.62290        3.68014
C         -5.52766        4.91855        3.08424
S         -4.59102        3.48285        2.91320
C         -6.96686        4.88465        2.89138
C         -7.89356        3.92464        3.26045
Cl        -7.61043        2.43234        4.06277
C         -9.23163        4.30134        2.93805
C         -9.33171        5.53317        2.31372
S         -7.75229        6.13588        2.01242
C        -10.54081        6.27004        1.86252
C        -10.67575        7.68094        1.82964
C        -11.87049        8.33738        1.35135
N        -11.90572        9.68832        1.30494
C        -10.84760       10.39698        1.73857
C         -9.72686        9.77829        2.20956
N         -9.64284        8.43671        2.26687
C        -13.01514        7.62179        0.92241
C        -12.92953        6.20078        0.97415
C        -11.67425        5.51712        1.43882
N        -11.77916        4.17568        1.38511
S        -13.29361        3.80330        0.85720
N        -13.89623        5.32197        0.64667
C        -14.27411        8.23345        0.42516
C        -15.14628        7.78294       -0.55077
C        -16.27001        8.64154       -0.75647
Cl       -17.44146        8.21936       -1.94315
C        -16.25096        9.75947        0.06564
S        -14.89611        9.67394        1.11688
C        -17.19469       10.86408        0.16543
C        -16.99219       12.20663        0.45656
Cl       -15.52148       12.99491        0.86385
C        -18.19092       12.98133        0.35989
C        -19.29798       12.23435        0.00898
S        -18.88475       10.56633        0.02890
C        -20.63641       12.68829       -0.18698
C        -21.52986       12.16786       -1.04269
C        -21.49764       11.09316       -2.04581
C        -20.52735       10.86667       -2.96703
C        -20.57029        9.78230       -3.88770
N        -20.59840        8.88134       -4.61911
C        -19.41974       11.75255       -3.13589
N        -18.53711       12.48669       -3.30555
C        -22.86592       10.49909       -2.06674
C        -23.73048       11.37991       -1.40643
C        -22.97375       12.48662       -0.79268
O        -23.43712       13.41253       -0.16071
C        -25.10622       11.19919       -1.32664
C        -25.65646       10.06543       -1.96758
C        -24.78836        9.15487       -2.59051
C        -23.38396        9.33939       -2.62831
S        -25.66295        7.84040       -3.29304
C        -27.14601        8.49470       -2.82583
C        -27.02741        9.65742       -2.11250
Br       -28.79109        7.70459       -3.24750
H         -1.77060        4.01738       -2.06181
H          1.84513        1.13274       -0.13475
H         -0.75443        3.10976       -4.59324
H         -1.61139        3.10894        4.11303
H         -2.52129        6.32058        3.68053
H        -10.08586        3.67923        3.17647
H        -10.93990       11.47563        1.69595
H         -8.85897       10.33101        2.54915
H        -14.99756        6.86287       -1.10513
H        -18.22695       14.05413        0.51564
H        -20.96144       13.48886        0.47995
H        -25.73310       11.91857       -0.80671
H        -22.77025        8.58753       -3.11125
H        -27.87092       10.21523       -1.72375
