108

C        -12.98515        6.99463        8.40051
C        -13.87460        7.57122        9.30601
F        -14.84793        8.37177        8.85056
C        -13.76938        7.30972       10.66437
F        -14.63133        7.86139       11.52934
C        -12.78579        6.45277       11.14109
C        -11.90878        5.82684       10.24522
C        -11.98903        6.11042        8.84901
C        -11.09924        5.47862        7.94615
C        -10.17715        4.54732        8.41689
C        -10.19145        4.23797        9.78077
C        -10.99365        4.88159       10.70889
C         -9.35346        3.06540       10.06220
O         -9.21725        2.56510       11.15917
C         -8.80506        2.61796        8.73578
C         -9.15002        3.68389        7.75892
C         -8.53585        3.94681        6.57873
C         -7.46205        3.16278        6.07435
N         -6.58684        2.52986        5.64948
C         -8.85374        5.08863        5.78958
N         -9.11182        6.02643        5.15736
C         -8.30370        1.39151        8.50640
C         -8.15945        0.30348        9.46703
C         -8.10455       -1.00151        9.14957
C         -8.26084       -2.08157       10.10007
C         -8.74241       -3.20249        9.53455
C         -8.92961       -3.08201        8.09791
S         -8.08375       -1.64057        7.52692
C         -9.77116       -3.77783        7.31128
C        -10.81244       -4.69122        7.74788
C        -11.85402       -4.72264        6.89618
C        -11.64268       -3.89991        5.72374
S         -9.96609       -3.45044        5.59258
C        -12.58887       -3.44305        4.89226
C        -12.31224       -2.61547        3.73389
C        -12.72832       -1.36180        3.51533
C        -12.58000       -0.70598        2.23662
C        -13.50330        0.24152        2.04710
C        -14.38084        0.41495        3.19357
S        -13.66888       -0.37174        4.60832
C        -15.68740        0.72791        3.15403
C        -16.58358        0.82631        4.29156
C        -17.79596        0.31658        4.03843
C        -17.87333       -0.23224        2.70222
S        -16.62973        0.45068        1.68416
C        -18.69856       -1.23396        2.38785
C        -18.68221       -2.05001        1.18912
C        -19.78239       -2.58802        0.64658
C        -19.80722       -3.53302       -0.44182
C        -21.04675       -3.88445       -0.81622
C        -22.09523       -3.20048       -0.08199
S        -21.39395       -2.20378        1.18390
C        -23.41427       -3.22525       -0.33871
C        -24.09202       -3.93893       -1.40421
C        -25.33513       -3.48715       -1.64273
C        -25.68249       -2.36134       -0.80352
S        -24.57362       -2.23476        0.53491
C        -26.58041       -1.41350       -1.11674
C        -26.62776       -0.14104       -0.42364
C        -26.62502        1.07750       -0.97757
C        -26.74112        2.26831       -0.06911
O        -26.52860        2.33142        1.12306
C        -27.23032        3.36093       -0.92315
C        -27.61267        4.62365       -0.50346
C        -28.20215        5.47486       -1.44500
C        -28.42730        5.00929       -2.77677
C        -29.07467        5.84444       -3.69619
C        -29.46697        7.12379       -3.31920
C        -29.22142        7.58796       -2.03451
C        -28.59729        6.77358       -1.09455
F        -29.58827        8.82819       -1.68581
F        -30.08197        7.90839       -4.21454
C        -27.99718        3.72741       -3.16606
C        -27.34713        2.91890       -2.24850
C        -26.69993        1.58059       -2.35209
C        -26.06244        1.12812       -3.46066
C        -25.17013        0.01808       -3.46724
N        -24.42534       -0.86758       -3.55480
C        -26.14517        1.80089       -4.71452
N        -26.23026        2.34515       -5.74113
H        -13.10280        7.22672        7.34497
H        -12.73583        6.26032       12.20967
H        -11.19089        5.70230        6.88618
H        -10.93801        4.60111       11.75758
H         -8.06402        1.10777        7.48554
H         -8.21148        0.56441       10.52157
H         -8.08671       -1.96011       11.16007
H         -8.98664       -4.09963       10.08563
H        -10.80380       -5.19919        8.70150
H        -12.77145       -5.26908        7.06964
H        -13.63549       -3.67939        5.06868
H        -11.74396       -3.12197        2.95409
H        -11.87031       -1.02197        1.48542
H        -13.63142        0.79467        1.12483
H        -16.27362        1.21541        5.25103
H        -18.58588        0.22134        4.76981
H        -19.40409       -1.56607        3.15030
H        -17.70309       -2.29220        0.78111
H        -18.90665       -3.93239       -0.88702
H        -21.24998       -4.59375       -1.60475
H        -23.61458       -4.70775       -1.99343
H        -25.95600       -3.83602       -2.45501
H        -27.18322       -1.52126       -2.01418
H        -26.61656       -0.20827        0.66759
H        -27.46904        4.91918        0.53306
H        -29.27709        5.51727       -4.71282
H        -28.42632        7.16723       -0.09592
H        -28.18971        3.38978       -4.18053
