108

C        -18.01613       -0.43519        4.42680
C        -19.28423       -0.88722        4.78031
F        -20.33959       -0.08169        4.59977
C        -19.45826       -2.15544        5.31585
F        -20.67936       -2.57475        5.67390
C        -18.37191       -3.00751        5.47996
C        -17.08751       -2.58370        5.11126
C        -16.89789       -1.26398        4.60019
C        -15.60295       -0.80637        4.27750
C        -14.51372       -1.64913        4.45274
C        -14.74658       -2.96805        4.85758
C        -15.99476       -3.44827        5.21823
C        -13.51334       -3.76195        4.77050
O        -13.42445       -4.92674        5.09380
C        -12.47073       -2.83469        4.20212
C        -13.04720       -1.47366        4.26754
C        -12.37317       -0.30338        4.38963
C        -13.03113        0.93550        4.62931
N        -13.57838        1.94150        4.82672
C        -10.95034       -0.23739        4.38975
N         -9.79012       -0.18562        4.38396
C        -11.32722       -3.23395        3.62279
C        -10.94744       -4.60087        3.51011
S         -9.99598       -5.27721        4.77070
C         -9.99334       -6.81005        4.03915
C        -10.64262       -6.83259        2.81973
C        -10.73613       -8.06540        1.97779
C        -11.19262       -5.53082        2.50185
C        -11.95237       -5.25652        1.30398
C        -11.98067       -4.09341        0.62999
C        -12.77742       -3.87938       -0.55648
C        -12.25925       -3.32958       -1.66764
C        -12.99122       -3.20225       -2.88784
C        -12.46404       -3.26198       -4.18251
C        -13.49472       -3.43113       -5.13808
C        -14.73791       -3.33565       -4.56517
S        -14.72764       -3.01461       -2.93586
C        -15.69321       -3.78132       -5.49556
C        -15.04977       -4.20089       -6.63723
C        -13.59762       -4.00563       -6.51825
C        -12.66300       -4.93815       -6.89773
C        -12.71721       -6.07129       -5.88607
N        -12.76219       -7.01133       -5.04682
C        -11.34855       -4.22537       -7.17081
N        -10.25810       -3.63407       -7.39735
C        -15.95119       -4.73019       -7.58116
C        -17.25903       -4.73524       -7.08408
S        -17.32575       -4.05303       -5.47685
C        -18.45954       -5.25442       -7.71808
S        -20.00090       -4.55223       -7.38925
C        -20.81215       -5.64929       -8.40042
C        -19.95897       -6.53637       -9.02374
C        -20.41498       -7.58793       -9.98214
C        -18.59310       -6.30350       -8.62109
C        -17.48827       -7.06590       -9.12354
C        -17.03905       -8.20891       -8.58057
C        -15.91155       -8.92751       -9.13213
C        -15.74241      -10.25256       -8.99633
C        -14.62625      -10.97719       -9.57226
C        -14.30274      -11.02775      -10.87193
C        -12.99187      -11.59926      -11.35180
O        -12.24877      -12.35391      -10.76300
C        -12.77078      -10.99336      -12.68970
C        -11.71759      -11.18330      -13.56477
C        -11.71564      -10.44439      -14.76295
C        -12.70941       -9.43938      -14.98481
C        -12.66709       -8.65641      -16.14490
C        -11.71152       -8.91526      -17.11838
C        -10.78749       -9.93590      -16.94291
C        -10.76818      -10.68543      -15.76814
F         -9.90739      -10.21693      -17.91302
F        -11.71022       -8.18547      -18.24199
C        -13.76379       -9.28102      -14.07943
C        -13.83720      -10.13987      -12.99748
C        -14.93095      -10.44795      -12.05658
C        -16.21308      -10.63604      -12.46061
C        -17.15808      -11.33810      -11.66984
N        -17.93987      -11.94217      -11.05050
C        -16.62963      -10.34443      -13.79396
N        -16.93025      -10.11246      -14.89546
H        -17.91977        0.56708        4.01727
H        -18.54393       -3.99730        5.89473
H        -15.48371        0.19955        3.88385
H        -16.10257       -4.47744        5.55189
H        -10.65144       -2.53368        3.14389
H         -9.49992       -7.63273        4.53806
H        -10.07477       -8.85239        2.35891
H        -10.43821       -7.85765        0.94559
H        -11.75836       -8.45592        1.98197
H        -12.51680       -6.09523        0.89647
H        -11.37535       -3.24869        0.94192
H        -13.81147       -4.21465       -0.50506
H        -11.19684       -3.09442       -1.69638
H        -11.40266       -3.37782       -4.36745
H        -15.67702       -5.10148       -8.55863
H        -21.88775       -5.58603       -8.49853
H        -21.50247       -7.56376      -10.11037
H        -20.14135       -8.58342       -9.61943
H        -19.95741       -7.43094      -10.96404
H        -17.02076       -6.67486      -10.02417
H        -17.52733       -8.62471       -7.69983
H        -15.17752       -8.33639       -9.67680
H        -16.45851      -10.85053       -8.43273
H        -13.99615      -11.49017       -8.84522
H        -10.94503      -11.91294      -13.33727
H        -13.39218       -7.86678      -16.32585
H        -10.02972      -11.47646      -15.66982
H        -14.54363       -8.54686      -14.26723
