72

C         -1.63412        5.46219      -10.40281
O         -2.78669        4.77761      -10.61284
C         -2.97061        3.97583       -9.53112
C         -1.94618        4.14597       -8.62743
C         -1.08108        5.11105       -9.19188
C          0.13220        5.65319       -8.67813
C          0.42217        5.80718       -7.37521
C          1.65951        6.40848       -6.92963
C          1.76933        7.03547       -5.75068
C          2.99552        7.66918       -5.30203
C          3.06246        8.71937       -4.46947
C          4.27885        9.26178       -3.90906
C          4.06197       10.13064       -2.90788
C          2.65195       10.33939       -2.62269
S          1.67718        9.60663       -3.89590
C          2.11089       10.86018       -1.50598
C          2.81168       11.29079       -0.31077
C          2.02314       11.33801        0.77611
C          0.65202       10.96057        0.49977
S          0.37238       10.90838       -1.21930
C         -0.25555       10.61454        1.43016
C         -1.53884       10.12060        1.09585
S         -2.95119       11.08518        0.89409
C         -3.98129        9.72500        0.48217
C         -3.20197        8.61591        0.53267
C         -1.88169        8.83392        0.86727
O         -1.06142        7.74642        0.92975
C         -1.97545        6.76186        0.60181
N         -1.45293        5.42605        0.55777
O         -2.26070        4.53454        0.26239
O         -0.25506        5.26163        0.81531
C         -3.27887        7.21644        0.36752
C         -5.37978        9.87763        0.15819
S         -6.32706       11.10466        0.86558
C         -7.76397       10.64766        0.03001
C         -8.97310       11.44895        0.23613
O        -10.05325       11.33662       -0.32334
O         -8.80134       12.44174        1.15695
C         -7.51468        9.55370       -0.79530
C         -6.14872        9.10845       -0.69355
C         -8.56492        8.90515       -1.66545
O         -9.90037        8.99985       -1.37583
C        -10.60219        8.35032       -2.32840
C         -9.74819        7.79419       -3.24261
C         -8.42878        8.13140       -2.81646
C         -7.23272        7.80478       -3.52508
C         -7.06354        6.69067       -4.25907
C         -5.85335        6.37380       -4.97666
C         -5.33072        7.15234       -5.93120
H         -1.35704        6.15709      -11.18607
H         -3.85547        3.35465       -9.55609
H         -1.84144        3.62196       -7.68635
H          0.84802        6.01711       -9.41329
H         -0.29879        5.51722       -6.61265
H          2.50299        6.38392       -7.61441
H          0.90373        7.10580       -5.09398
H          3.91827        7.20244       -5.63875
H          5.26048        8.94889       -4.23686
H          4.85625       10.59505       -2.34110
H          3.87566       11.48062       -0.28172
H          2.37722       11.57207        1.77078
H          0.01045       10.63796        2.48208
H         -4.13305        6.60275        0.11873
H         -7.88955       12.46062        1.50366
H         -5.75093        8.24919       -1.21847
H        -11.67759        8.38855       -2.22485
H        -10.04299        7.24549       -4.12620
H         -6.41156        8.51657       -3.47301
H         -7.84479        5.93487       -4.31223
H         -5.38915        5.41822       -4.74249
H         -5.79548        8.08782       -6.22874
H         -4.42972        6.85441       -6.45858
