92

C         14.51513       -3.68915        1.96361
S         14.49255       -5.40201        2.02834
C         13.47179       -5.42039        3.43057
C         13.33015       -4.13781        3.92626
C         13.88879       -3.14994        3.05618
C         13.85906       -1.77942        3.28251
C         13.33650       -1.45650        4.56000
O         13.33829       -0.14728        5.01832
C         13.96307        0.81980        4.17117
C         12.80333       -2.46164        5.47308
O         12.39252       -2.01082        6.71913
C         12.47472       -2.95973        7.78681
C         12.69361       -3.83556        5.13308
C         12.91350       -6.65959        3.86825
C         11.75079       -7.10017        3.35948
C         11.02547       -8.27510        3.78388
C          9.76700       -8.32656        3.30879
C          9.41258       -7.18682        2.47560
S         10.86312       -6.26137        2.11388
C          8.19357       -6.78717        2.06324
C          6.91060       -7.40472        2.33523
C          5.85887       -6.68340        1.91047
C          6.22456       -5.43277        1.27915
S          7.95177       -5.29733        1.14113
C          5.37019       -4.47593        0.88155
C          5.77868       -3.16880        0.32040
C          5.99899       -2.03329        1.12501
C          6.43522       -0.85108        0.50008
C          6.61994       -0.75578       -0.87218
C          6.38936       -1.89339       -1.67911
C          5.98362       -3.07683       -1.06922
N          6.56017       -1.84100       -3.01833
C          6.95283       -0.65575       -3.53178
C          7.17490        0.45357       -2.74063
N          7.01348        0.41992       -1.40237
C          5.88623       -2.07404        2.60127
C          5.51217       -1.03340        3.36456
C          5.51246       -1.07990        4.81723
C          5.61471       -0.02579        5.64373
C          5.59553       -0.11108        7.08627
C          5.63373        1.07836        7.70597
C          5.71726        2.20867        6.80128
S          5.81905        1.62574        5.13098
C          5.71642        3.51485        7.12844
C          5.58603        4.11819        8.44102
C          5.63022        5.46283        8.43627
C          5.82019        6.04360        7.11671
S          5.89289        4.76874        5.92815
C          5.97430        7.35860        6.86160
C          6.25119        7.94905        5.57692
S          5.52679        7.36854        4.08724
C          6.48553        8.35740        3.16288
C          7.19533        9.25563        3.90157
C          7.04479        9.06853        5.29426
C          7.88868       10.10674        2.97097
O          8.60786       11.07029        3.21729
C          7.52134        9.54820        1.60390
C          6.67650        8.50894        1.78183
C          7.97536       10.13403        0.37315
C          8.63591        9.48784       -0.59772
H         15.03057       -3.17942        1.16203
H         14.24730       -1.06909        2.57019
H         15.03751        0.61996        4.07431
H         13.84818        1.80927        4.62202
H         13.48518        0.86195        3.18520
H         12.08616       -2.48820        8.69479
H         13.51343       -3.25496        7.97857
H         11.85107       -3.84243        7.61529
H         12.21762       -4.58240        5.74714
H         13.41637       -7.18732        4.67092
H         11.45965       -9.01615        4.44093
H          9.07646       -9.12359        3.54436
H          6.81057       -8.35029        2.85055
H          4.82808       -6.98259        2.04463
H          4.29753       -4.60411        0.99477
H          6.66427        0.03341        1.09189
H          5.83813       -3.95169       -1.69990
H          7.08745       -0.61706       -4.60625
H          7.48591        1.40346       -3.15857
H          6.20109       -3.00274        3.07065
H          5.21010       -0.09458        2.90338
H          5.42041       -2.07309        5.25125
H          5.54866       -1.05676        7.60719
H          5.61836        1.18883        8.78017
H          5.46324        3.53286        9.34130
H          5.55348        6.06491        9.33237
H          5.97257        8.04890        7.70542
H          7.54282        9.66762        6.04840
H          6.20902        7.90832        1.02386
H          7.78621       11.20019        0.26746
H          8.89805        8.43715       -0.53322
H          8.96996       10.02989       -1.47755
