99

C          0.52799        0.76069        3.15802
S          0.11229       -0.26653        1.86956
C         -0.66078       -1.44933        2.89865
C         -0.45802       -1.08869        4.23416
C          0.20555        0.18767        4.35600
C          0.56745        0.79294        5.55589
C          0.30358        0.01746        6.71172
O          0.81620        0.68062        7.79704
C          0.80756        0.14851        9.10244
C         -0.34948       -1.25931        6.62570
O         -0.39181       -2.14167        7.68625
C         -1.39647       -1.87258        8.65870
C         -0.79052       -1.83879        5.38834
C         -1.27267       -2.62482        2.26908
S         -1.00727       -4.17399        2.96244
C         -1.99317       -5.04446        1.84569
C         -2.38879       -4.16996        0.83788
C         -1.99471       -2.77920        1.08942
C         -2.32061       -1.73346        0.19543
C         -2.99744       -2.16369       -0.97914
N         -3.28594       -1.11879       -1.95904
O         -3.84701       -0.10364       -1.55423
O         -2.94441       -1.31547       -3.13620
C         -3.43083       -3.49990       -1.23833
N         -4.01804       -3.90799       -2.44933
C         -3.09471       -4.53844       -0.33298
C         -2.24786       -6.46560        2.07265
S         -3.11148       -7.48532        1.01010
C         -3.04818       -8.93439        1.95253
C         -2.30999       -8.59062        3.04714
C         -1.90367       -7.26045        3.11408
O         -1.19538       -6.88540        4.21781
C         -1.13470       -8.08871        4.87287
N         -0.39579       -8.05619        6.09313
O          0.37110       -9.00925        6.29180
O         -0.60687       -7.11143        6.85844
C         -1.77379       -9.15245        4.23331
C         -3.68576      -10.18792        1.51669
S         -3.42828      -11.63292        2.40947
C         -4.41513      -12.70505        1.40983
C         -4.89152      -11.91019        0.36105
C         -4.50244      -10.49246        0.43404
C         -4.92930       -9.55721       -0.53915
C         -5.69243      -10.06857       -1.61761
N         -6.11612       -9.09244       -2.64392
O         -5.56773       -7.97908       -2.64604
O         -7.02285       -9.41639       -3.42909
C         -6.09514      -11.42617       -1.70567
N         -6.68893      -11.98137       -2.86341
C         -5.69552      -12.35345       -0.71065
C         -4.53142      -14.18514        1.87432
C         -4.08202      -14.50864        3.17904
C         -4.13189      -15.80120        3.70285
C         -4.66586      -16.84578        2.95621
C         -5.12047      -16.59303        1.65628
C         -5.05370      -15.28137        1.11105
N         -5.50808      -15.15541       -0.15048
C         -6.06355      -16.18528       -0.86498
C         -6.58497      -15.71736       -2.20059
C         -7.17039      -16.65246       -3.24254
C         -6.11995      -17.44167       -0.30451
C         -6.62681      -18.68523       -0.98104
C         -7.10439      -19.77922       -0.03066
N         -5.61636      -17.62750        0.93606
C         -4.65157      -18.18484        3.59331
C         -5.62065      -19.10909        3.49034
H          1.03622        1.69820        2.97128
H          1.08441        1.74416        5.62335
H         -0.17187        0.29509        9.56408
H          1.51535        0.73745        9.69506
H          1.14640       -0.88796        9.14361
H         -2.18393       -2.62804        8.59888
H         -1.83626       -0.87416        8.57744
H         -0.92844       -1.97722        9.64538
H         -1.26219       -2.81436        5.37923
H         -2.07349       -0.69031        0.33808
H         -4.42896       -3.19110       -3.04473
H         -4.56212       -4.76914       -2.42799
H         -3.36881       -5.54611       -0.60379
H         -1.82746      -10.16756        4.59845
H         -4.71907       -8.50261       -0.52485
H         -7.19848      -11.29923       -3.43335
H         -7.24046      -12.81505       -2.68984
H         -6.02551      -13.35626       -0.84109
H         -3.66880      -13.76149        3.85145
H         -3.75777      -15.97807        4.71014
H         -5.76286      -15.17537       -2.68564
H         -7.36195      -14.97112       -1.98449
H         -7.36433      -16.09716       -4.16794
H         -8.13621      -17.05326       -2.92088
H         -6.48820      -17.47056       -3.48501
H         -5.83141      -19.08183       -1.62240
H         -7.49096      -18.45911       -1.60070
H         -6.28790      -20.16863        0.58426
H         -7.52061      -20.61513       -0.60249
H         -7.88971      -19.40174        0.63374
H         -3.77741      -18.41659        4.19425
H         -6.52014      -18.94077        2.90826
H         -5.52033      -20.07329        3.97245
