74

C         10.90739       -4.90334        7.35505
C         10.63470       -4.63453        6.07668
C         11.10802       -3.49401        5.34087
C         10.67985       -3.46598        4.06991
C          9.82550       -4.58857        3.70766
S          9.63351       -5.66498        5.09786
C          9.23926       -4.79943        2.51188
C          9.34927       -3.95386        1.33673
C          8.60655       -4.36414        0.29779
C          7.84465       -5.56714        0.56175
S          8.18184       -6.17248        2.16378
C          6.98998       -6.11814       -0.31770
C          6.22938       -7.28343       -0.06104
S          6.71052       -8.89238       -0.48028
C          5.23450       -9.62585        0.10558
C          4.45341       -8.61664        0.56845
C          4.99330       -7.35206        0.47281
O          4.23165       -6.31232        0.92007
C          3.12472       -7.01838        1.35604
N          2.07630       -6.22895        1.94068
O          1.08458       -6.84362        2.34498
O          2.24174       -5.00213        1.98765
C          3.19287       -8.40325        1.16607
C          4.96762      -11.03379        0.04035
S          3.37093      -11.69488       -0.09835
C          3.89690      -13.35504       -0.05132
C          5.24999      -13.32983        0.03378
C          5.82531      -12.07581        0.08107
O          7.18496      -12.02554        0.19358
C          7.46056      -13.37863        0.21627
N          8.85081      -13.72223        0.32605
O          9.10366      -14.93318        0.39187
O          9.67621      -12.80645        0.34447
C          6.34228      -14.21266        0.13437
C          2.98186      -14.45704       -0.09708
S          3.33075      -16.00289       -0.79360
C          1.77032      -16.68641       -0.39039
C          1.07468      -15.71924        0.26499
C          1.72600      -14.51189        0.39786
O          1.06344      -13.50999        1.04314
C         -0.11740      -14.16202        1.32632
N         -1.09927      -13.36474        1.99464
O         -2.17621      -13.92011        2.25715
O         -0.81652      -12.18373        2.25643
C         -0.16349      -15.50217        0.91378
C          1.47314      -18.04046       -0.71325
C          0.91461      -18.42634       -1.87107
C          0.47442      -19.77711       -2.15868
C         -0.42463      -19.83677       -3.15691
C         -0.74724      -18.52564       -3.70102
S          0.47405      -17.36260       -3.18004
C         -1.87557      -18.17231       -4.34710
C         -2.98880      -19.04187       -4.68530
C         -4.09036      -18.38098       -5.07330
C         -3.92335      -16.95013       -5.07656
S         -2.28139      -16.49619       -4.73989
C         -4.88884      -16.05105       -5.28065
H         11.53373       -4.25172        7.95368
H         10.50789       -5.78862        7.84141
H         11.74350       -2.73978        5.78338
H         10.94141       -2.67334        3.38376
H          9.96727       -3.06769        1.29964
H          8.56762       -3.84411       -0.65022
H          6.84968       -5.64810       -1.28645
H          2.43092       -9.12028        1.43940
H          6.35106      -15.29450        0.15257
H         -0.98751      -16.18521        1.06663
H          1.65611      -18.77849        0.06196
H          0.78832      -20.63458       -1.57926
H         -0.91559      -20.74957       -3.46420
H         -2.94915      -20.11856       -4.60215
H         -5.02431      -18.85585       -5.33903
H         -5.91263      -16.34865       -5.47449
H         -4.68321      -14.98511       -5.23842
