100

C         -2.35878       -0.32834       -3.80111
C         -2.95508       -1.52111       -4.04725
C         -2.27508       -2.60412       -4.67845
N         -1.72377       -3.48479       -5.18606
C         -4.29388       -1.81793       -3.63736
N         -5.38077       -2.04297       -3.31113
C         -0.93390        0.03565       -4.08158
C         -0.61086        1.16084       -3.31978
C          0.62769        1.79036       -3.32974
C          1.62565        1.25220       -4.16727
C          1.31374        0.13068       -4.95194
C          0.03356       -0.48622       -4.93389
S          2.67525       -0.35225       -5.90234
C          3.63558        0.88772       -5.27787
C          2.97972        1.68221       -4.37671
Br         5.42286        1.15211       -5.77116
C         -1.77117        1.62307       -2.55346
O         -1.73345        2.47859       -1.69559
C         -2.93388        0.80491       -3.04408
C         -4.21574        1.19762       -2.92990
C         -4.57777        2.41127       -2.28510
S         -4.70592        3.84944       -3.23195
C         -4.96268        4.86045       -1.85970
C         -5.05013        4.09453       -0.71519
C         -4.86458        2.68172       -0.96391
C         -4.90927        1.69725        0.03044
C         -5.15881        2.25196        1.29882
F         -5.24213        1.40694        2.33972
C         -5.33051        3.64639        1.54610
F         -5.55099        4.04460        2.80919
C         -5.28362        4.63963        0.55108
C         -5.03381        6.26737       -2.05029
C         -6.22014        6.86724       -2.22299
C         -6.35027        8.30359       -2.37745
C         -7.42762        9.02355       -2.03059
C         -7.51091       10.46395       -2.09962
C         -8.53731       10.97160       -1.39940
C         -9.33141        9.96004       -0.72142
S         -8.86156        8.36032       -1.29320
C        -10.21027       10.15607        0.27918
C        -10.54754       11.42141        0.90502
C        -11.20808       11.28734        2.06505
C        -11.44336        9.90902        2.43501
S        -11.00964        8.83653        1.13239
C        -11.89071        9.51985        3.63715
C        -12.05121        8.15447        4.00685
S        -13.60159        7.44531        3.83488
C        -13.13376        5.94171        4.54887
C        -11.78761        5.96979        4.85853
C        -11.16306        7.23336        4.52625
C         -9.80513        7.50671        4.72813
C         -9.12270        6.41289        5.29260
F         -7.80643        6.55061        5.51900
C         -9.73966        5.17608        5.63858
F         -8.97903        4.21380        6.18635
C        -11.10410        4.89205        5.44312
C        -14.07994        4.88974        4.69409
C        -15.38280        5.11801        4.91603
C        -16.31639        4.04144        5.06434
C        -16.28246        3.08278        5.99547
C        -15.39759        2.75224        7.12744
C        -14.73749        3.58907        7.96966
C        -13.90754        3.12753        9.03179
N        -13.21661        2.76117        9.89051
C        -14.86409        5.01231        7.95627
N        -14.94106        6.16051        8.05167
C        -15.55464        1.27720        7.33801
C        -16.63896        0.83175        6.57407
C        -17.16208        1.90625        5.72986
O        -18.07165        1.81001        4.93268
C        -17.12636       -0.46698        6.57873
C        -16.46589       -1.40116        7.40046
C        -15.35743       -0.97823        8.14916
C        -14.88035        0.35539        8.12667
S        -14.69236       -2.28062        9.06664
C        -15.84675       -3.36241        8.48238
C        -16.73426       -2.79499        7.60892
Br       -15.90082       -5.16591        8.98026
H          0.80687        2.67323       -2.72157
H         -0.14723       -1.32948       -5.59094
H          3.43043        2.53108       -3.87599
H         -5.03523        0.65118       -3.38188
H         -4.77609        0.63455       -0.11220
H         -5.42107        5.68763        0.77543
H         -4.10995        6.83612       -1.99652
H         -7.13406        6.27421       -2.22414
H         -5.47167        8.81938       -2.75960
H         -6.78602       11.06480       -2.63123
H         -8.72845       12.03108       -1.31120
H        -10.25102       12.38030        0.50467
H        -11.50195       12.11688        2.69384
H        -12.13981       10.25741        4.39393
H         -9.30055        8.42804        4.47588
H        -11.52374        3.93695        5.72384
H        -13.71196        3.86768        4.64148
H        -15.81055        6.11772        4.96731
H        -17.06649        4.00274        4.27010
H        -17.97889       -0.74179        5.96350
H        -14.01059        0.59954        8.72376
H        -17.54155       -3.33352        7.12760
