130

C         -7.26885      -13.16943       -9.24746
C         -7.07125      -14.55520       -9.26769
C         -6.70023      -15.25613       -8.10893
C         -6.56175      -14.59617       -6.89000
C         -6.80557      -13.23418       -6.85995
C         -7.12272      -12.49976       -8.04397
C         -7.11862      -11.03156       -7.70706
C         -7.69516      -10.00861       -8.37313
C         -8.45261      -10.21383       -9.55993
N         -9.08660      -10.39042      -10.51601
C         -7.66637       -8.67663       -7.86605
N         -7.62832       -7.59177       -7.45676
C         -6.47923      -10.97192       -6.37030
C         -6.79194      -12.26286       -5.73717
C         -7.52390      -12.45325       -4.61455
C         -8.23780      -11.36652       -4.02103
N         -8.91930      -10.52447       -3.60609
C         -7.86392      -13.75108       -4.14318
N         -8.11973      -14.81158       -3.74571
C         -5.44644      -10.17059       -6.03675
C         -4.54663      -10.48354       -4.96942
S         -4.88833       -9.92497       -3.39347
C         -3.42142      -10.54023       -2.73261
C         -2.68257      -11.21200       -3.69498
C         -3.33708      -11.16386       -4.97360
S         -2.61947      -11.87028       -6.38829
O         -2.39238      -10.74020       -7.26320
O         -3.51392      -12.95776       -6.72121
C         -1.05753      -12.54616       -5.85706
C         -0.44739      -11.78723       -4.69056
C         -1.34931      -11.87389       -3.46118
C         -3.09132      -10.35237       -1.35989
C         -3.44459       -9.24583       -0.69695
C         -3.11782       -8.97244        0.68497
C         -3.53000       -9.83694        1.64849
C         -3.53792       -9.38823        3.02384
C         -4.15775       -9.90137        4.12026
C         -4.88765      -11.21977        4.34297
C         -6.16062      -11.42844        3.47407
N         -7.19331      -10.40842        3.60622
C         -4.01718      -12.49623        4.10891
N         -2.83542      -12.62957        4.95394
C         -4.13200       -8.77612        5.07752
C         -4.91715       -8.48668        6.12914
C         -4.87619       -7.12381        6.82277
C         -3.79059       -6.18129        6.30889
C         -3.00834       -6.47580        5.26087
C         -3.26706       -7.71087        4.57808
C         -2.96013       -8.06027        3.32724
C         -2.33608       -7.26925        2.30149
C         -2.46540       -7.69606        1.03547
C         -4.67337       -7.29801        8.29361
C         -5.63876       -7.40508        9.21374
C         -5.34723       -7.48277       10.60640
S         -6.52610       -6.83252       11.66571
C         -5.57769       -7.08092       13.07442
C         -4.39994       -7.75225       12.76795
C         -4.29224       -7.99517       11.34832
S         -2.93754       -8.85967       10.68254
O         -2.10020       -7.84078       10.08344
O         -3.52383       -9.95932        9.94779
C         -2.06945       -9.49525       12.08409
C         -1.98767       -8.45001       13.18217
C         -3.36706       -8.18225       13.78234
C         -6.05235       -6.65151       14.35084
C         -6.80414       -5.54953       14.48565
C         -7.26296       -5.06094       15.75988
C         -7.07704       -3.80685       16.21073
C         -7.93414       -3.18401       17.24475
C         -8.30149       -3.73546       18.42386
C         -7.88934       -5.04580       18.80978
N         -7.55969       -6.12123       19.10461
C         -9.07064       -3.02990       19.38394
N         -9.70994       -2.45639       20.16689
C         -8.17917       -1.79034       16.74379
C         -7.25667       -1.51224       15.69157
C         -7.32256       -0.31509       14.98867
C         -8.29287        0.62179       15.34698
C         -9.19896        0.35299       16.37940
C         -9.15519       -0.85892       17.07480
C         -6.38033       -2.70414       15.51745
C         -5.10886       -2.71165       15.03365
C         -4.49402       -1.56807       14.46275
N         -3.98844       -0.63399       13.99505
C         -4.25223       -3.84405       15.19230
N         -3.51997       -4.73357       15.35200
H         -7.50097      -12.66246      -10.17731
H         -7.17903      -15.09755      -10.20501
H         -6.50978      -16.32571       -8.16390
H         -6.24515      -15.14412       -6.00825
H         -5.14450       -9.34582       -6.67977
H         -0.38730      -12.52682       -6.72196
H         -1.22677      -13.59304       -5.58194
H         -0.28121      -10.73813       -4.96483
H          0.53192      -12.21827       -4.45037
H         -0.82619      -11.40859       -2.61756
H         -1.51828      -12.92441       -3.19153
H         -2.47899      -11.09947       -0.86260
H         -4.00840       -8.44411       -1.17382
H         -4.03054      -10.76363        1.40261
H         -5.20548      -11.25682        5.39438
H         -6.61620      -12.38925        3.74980
H         -5.89184      -11.51868        2.41637
H         -7.47339      -10.32858        4.58170
H         -8.02190      -10.70788        3.09210
H         -3.71168      -12.56925        3.05885
H         -4.63997      -13.37949        4.30589
H         -2.14709      -11.92598        4.68727
H         -2.40020      -13.53637        4.78536
H         -5.69210       -9.17544        6.44481
H         -5.83602       -6.62174        6.64224
H         -3.64073       -5.24106        6.83388
H         -2.23420       -5.80164        4.91537
H         -1.86865       -6.32210        2.53969
H         -2.09231       -7.08170        0.22100
H         -3.63086       -7.28277        8.57384
H         -6.67990       -7.36570        8.89784
H         -1.06965       -9.76331       11.72753
H         -2.57654      -10.40388       12.42022
H         -1.56668       -7.51574       12.78774
H         -1.30994       -8.80111       13.96732
H         -3.25733       -7.41591       14.55662
H         -3.72892       -9.09136       14.27850
H         -5.72136       -7.19516       15.23320
H         -7.10654       -4.95267       13.62669
H         -7.94119       -5.75134       16.25787
H         -6.66815       -0.08544       14.15392
H         -8.35772        1.56414       14.80612
H         -9.96160        1.08959       16.62783
H         -9.90923       -1.04189       17.83257
