90

C         -3.90461        3.84769        6.60054
S         -2.78082        5.08186        6.22890
C         -1.52274        4.29983        7.11165
C         -1.99231        3.14149        7.71931
C         -3.36044        2.87544        7.41179
C         -4.11017        1.73798        7.85527
N         -4.71666        0.80854        8.18998
C         -1.16506        2.31181        8.54833
N         -0.47231        1.64771        9.19911
C         -0.21917        4.87213        7.13832
C          0.20364        5.77523        8.05621
N         -0.59495        6.32461        9.12614
O         -0.28346        7.45611        9.52208
O         -1.51110        5.63923        9.59780
C          1.60455        6.07918        7.90174
C          2.08056        5.36458        6.87296
C          0.97444        4.61458        6.26768
C          1.07621        3.85249        5.15310
C          0.00072        3.03192        4.59229
C          0.50628        2.31636        3.57738
C          1.89852        2.67351        3.40641
N          2.72638        2.09702        2.36064
O          2.17825        1.27211        1.61498
O          3.91276        2.43481        2.26639
C          2.28296        3.62773        4.28590
C          3.57464        4.28719        4.30640
C          3.76495        5.59515        4.06366
C          5.06346        6.21456        4.06316
N          5.55671        6.94954        2.98169
C          4.86148        7.25219        1.75025
C          4.14597        8.59150        1.83486
C          6.83764        7.47433        3.24282
O          7.55696        8.16971        2.55630
C          7.09933        6.99930        4.60507
C          5.96908        6.23184        5.04885
C          6.24884        5.80077        6.43334
O          5.51905        5.16103        7.16298
N          7.52513        6.34996        6.68546
C          8.17160        6.23811        7.97894
C          8.98294        4.95990        8.11618
C          8.00301        7.05100        5.57951
C          9.24131        7.76411        5.52062
C         10.44573        7.18017        5.58654
C         11.69786        7.88479        5.49983
C         11.91105        9.15614        5.90174
C         13.33047        9.47348        5.73250
C         13.94464        8.24078        5.21506
C         12.97522        7.32201        5.09161
C         15.29920        7.96964        4.91926
N         16.41337        7.72691        4.70168
C         13.90560       10.66397        6.00987
C         15.32601       10.97278        5.84390
C         15.54181       12.26058        6.17668
C         14.26458       12.82381        6.60628
C         13.29169       11.90018        6.51510
C         11.94266       12.14667        6.86918
N         10.84289       12.35112        7.16459
C         16.83605       12.86241        6.13290
S         17.22417       14.09890        7.28344
C         18.80806       14.28677        6.68715
C         19.06280       13.44791        5.62798
C         17.92906       12.64521        5.29257
C         17.92027       11.72803        4.18769
N         17.90168       10.99424        3.29061
C         20.32994       13.42278        4.95967
N         21.35906       13.40695        4.42687
H         -4.91316        3.90067        6.20867
H          2.18468        6.70484        8.56483
H          3.12079        5.32255        6.60949
H         -1.02512        2.97057        4.90636
H         -0.02899        1.61194        2.95684
H          4.43275        3.63765        4.48334
H          2.92175        6.24907        3.85222
H          4.16144        6.44699        1.50705
H          5.60152        7.29853        0.94247
H          3.44153        8.61222        2.67264
H          3.59321        8.78897        0.91204
H          4.86109        9.40803        1.98449
H          7.39130        6.23735        8.74930
H          8.79780        7.11817        8.16042
H          8.34641        4.07640        8.00705
H          9.46272        4.91925        9.09898
H          9.76680        4.89310        7.35839
H          9.15228        8.83252        5.32981
H         10.52240        6.09982        5.68093
H         11.14875        9.79841        6.30665
H         13.09640        6.30473        4.74761
H         16.08301       10.27568        5.52764
H         14.13977       13.84372        6.94807
H         19.47576       15.00797        7.14236
