116

C         -3.81069        2.78546       -0.90866
C         -3.10800        3.15142       -2.05424
F         -2.54954        4.36766       -2.11940
C         -2.97366        2.26584       -3.11369
F         -2.27333        2.61460       -4.20135
C         -3.55452        1.00440       -3.05590
C         -4.26860        0.61283       -1.91497
C         -4.38962        1.51026       -0.81018
C         -5.05187        1.10079        0.36944
C         -5.57345       -0.18431        0.45392
C         -5.44205       -1.03438       -0.65313
C         -4.82653       -0.66528       -1.83716
C         -5.89422       -2.39356       -0.32205
O         -6.03588       -3.30199       -1.11139
C         -6.09431       -2.38811        1.16634
C         -6.20610       -0.96262        1.55846
C         -6.89566       -0.45616        2.60807
C         -7.60928       -1.29650        3.51379
N         -8.18364       -1.99191        4.24250
C         -7.02729        0.94514        2.83810
N         -7.12132        2.08923        3.01990
C         -5.92031       -3.46772        1.95117
C         -5.60823       -4.76555        1.44165
S         -6.88944       -5.84036        1.08178
C         -5.83826       -7.10534        0.58233
C         -4.51010       -6.68861        0.59928
C         -4.37410       -5.37113        1.23191
C         -3.03364       -4.78603        1.57823
F         -3.11522       -3.54824        2.13002
F         -2.38544       -5.56627        2.47931
F         -2.22789       -4.67678        0.49616
C         -3.30941       -7.44901        0.08563
F         -3.59082       -8.62382       -0.52794
F         -2.62524       -6.72013       -0.83109
F         -2.44488       -7.73491        1.08986
C         -6.43760       -8.34477        0.20590
C         -5.83037       -9.51003        0.46859
C         -6.30662      -10.80415        0.09279
N         -6.51958      -11.25398       -1.21059
C         -6.20147      -10.53301       -2.43231
C         -4.79473      -10.82622       -2.94076
C         -6.85801      -12.63032       -1.22780
O         -7.05136      -13.37283       -2.16868
C         -6.84025      -12.99771        0.20386
C         -6.47760      -11.81950        0.93782
C         -6.33250      -12.16850        2.35290
O         -5.96048      -11.44294        3.25239
N         -6.63930      -13.54587        2.35378
C         -6.41563      -14.34480        3.53769
C         -7.60545      -14.33584        4.48012
C         -6.94754      -14.01271        1.06631
C         -7.16003      -15.40140        0.74644
C         -8.21736      -16.14466        1.12372
C         -8.20794      -17.55440        0.88455
S         -8.81538      -18.20340       -0.58615
C         -8.34071      -19.81218       -0.19613
C         -7.61750      -19.82677        0.98876
C         -7.78691      -18.57763        1.72442
C         -7.45501      -18.45889        3.18248
F         -7.62939      -17.21412        3.68460
F         -8.25642      -19.27856        3.91178
F         -6.17741      -18.82006        3.44544
C         -6.78456      -20.95922        1.51597
F         -6.78104      -22.05498        0.71762
F         -5.48803      -20.57219        1.64183
F         -7.19609      -21.36397        2.74102
C         -8.59586      -20.87358       -1.11637
C         -9.71133      -21.62737       -1.12327
C        -10.88685      -21.45896       -0.29307
C        -11.39072      -22.35369        0.56980
C        -12.37505      -21.88768        1.61092
O        -13.15229      -20.95949        1.54616
C        -12.12080      -22.75192        2.78465
C        -12.67357      -22.63725        4.04862
C        -12.17256      -23.47084        5.06078
C        -11.08186      -24.35283        4.77936
C        -10.53260      -25.12647        5.80825
C        -11.07578      -25.07069        7.08532
C        -12.16553      -24.25378        7.35237
C        -12.71166      -23.44880        6.35555
F        -12.70214      -24.23144        8.57983
F        -10.53986      -25.82320        8.05547
C        -10.57015      -24.46152        3.47784
C        -11.13514      -23.70247        2.47310
C        -10.93277      -23.67865        1.00329
C        -10.78186      -24.79618        0.25394
C        -11.14305      -24.81448       -1.12383
N        -11.49287      -24.84996       -2.22749
C        -10.45205      -26.07988        0.82224
N        -10.17449      -27.09974        1.28984
H         -3.88358        3.50497       -0.09697
H         -3.42268        0.33221       -3.89973
H         -5.08953        1.78720        1.21119
H         -4.73739       -1.38395       -2.64809
H         -5.91862       -3.37718        3.03393
H         -7.41948       -8.33316       -0.26473
H         -4.90658       -9.54172        1.04475
H         -6.32585       -9.45729       -2.28192
H         -6.92098      -10.83707       -3.20055
H         -4.03734      -10.59443       -2.18552
H         -4.58062      -10.22701       -3.83233
H         -4.68327      -11.88143       -3.21155
H         -5.54999      -13.92869        4.06854
H         -6.14332      -15.36367        3.25095
H         -7.81135      -13.32561        4.84841
H         -7.40276      -14.97703        5.34393
H         -8.50886      -14.70202        3.98405
H         -6.35265      -15.85072        0.16947
H         -9.04019      -15.71599        1.68930
H         -7.79938      -21.11904       -1.81742
H         -9.76856      -22.42608       -1.86188
H        -11.32773      -20.45966       -0.32497
H        -13.46104      -21.91151        4.23660
H         -9.68612      -25.78523        5.63123
H        -13.56025      -22.81760        6.60517
H         -9.74608      -25.14024        3.27469
