96

C         -7.25504       -2.76152        4.63731
S         -7.71395       -1.14136        4.90517
C         -6.99281       -0.60175        3.42694
C         -6.37338       -1.66838        2.78317
C         -6.53934       -2.90792        3.47334
C         -5.62081       -1.55512        1.56708
N         -5.01044       -1.43779        0.58625
C         -7.10258        0.78876        3.11062
C         -7.13877        1.22465        1.84246
C         -7.22738        2.61084        1.44373
C         -8.26088        3.16580        0.76122
N         -9.44853        2.45773        0.33631
O        -10.48267        3.13148        0.22683
O         -9.36653        1.24984        0.08064
C         -8.06558        4.57531        0.52868
C         -6.90417        4.93291        1.08843
C         -6.29916        3.75715        1.71919
C         -5.11637        3.76399        2.37756
C         -4.36038        2.56895        2.75665
C         -3.23089        2.96158        3.36318
C         -3.21607        4.40719        3.41372
N         -2.15488        5.15477        4.05843
O         -2.36995        6.31668        4.42445
O         -1.07802        4.56056        4.21446
C         -4.30770        4.94793        2.82234
C         -4.62715        6.36363        2.76162
C         -5.68008        6.90314        3.39764
C         -5.98307        8.30558        3.46987
N         -6.29509        9.15447        2.40141
C         -6.53391        8.79209        1.02165
C         -8.00500        8.49379        0.75761
C         -6.59128       10.46403        2.85144
O         -6.95186       11.43897        2.22458
C         -6.41686       10.35583        4.30682
C         -6.05853        8.99938        4.60869
C         -5.92027        8.87739        6.07004
O         -5.65208        7.87541        6.69932
N         -6.19510       10.18763        6.51256
C         -6.14738       10.56548        7.91098
C         -7.47815       10.35034        8.61237
C         -6.48940       11.03918        5.44811
C         -6.81224       12.42346        5.62470
C         -6.09046       13.41276        5.07918
C         -6.39419       14.80806        5.25272
C         -6.22033       15.72295        4.27595
C         -6.59420       17.04317        4.79304
C         -6.94365       16.82073        6.20618
C         -6.82612       15.50491        6.45374
C         -7.32605       17.76613        7.18874
N         -7.64450       18.53624        7.98784
C         -6.61389       18.19016        4.08165
C         -6.97664       19.51233        4.59717
C         -6.90832       20.40793        3.59017
C         -6.49390       19.69978        2.38812
C         -6.30710       18.39897        2.65913
C         -5.89938       17.46002        1.68640
N         -5.56165       16.70205        0.87619
C         -7.20558       21.78602        3.77522
S         -7.84835       22.73337        2.49092
C         -7.94571       24.16602        3.44349
C         -7.47483       23.91634        4.72269
C         -7.06432       22.56323        4.90832
C         -7.40932       24.88812        5.77626
N         -7.32891       25.67994        6.61950
C         -8.47547       25.34831        2.83592
C         -8.09355       26.57797        3.20487
H         -7.52307       -3.52950        5.35058
H         -6.14505       -3.85986        3.13535
H         -7.16262        1.50010        3.93358
H         -7.14694        0.52813        1.00577
H         -8.72272        5.20463       -0.05289
H         -6.45851        5.90371        0.99286
H         -4.59162        1.54421        2.52134
H         -2.44062        2.32188        3.72867
H         -3.91366        6.99683        2.23594
H         -6.31575        6.26641        4.01306
H         -5.90360        7.94825        0.73735
H         -6.23379        9.63505        0.38771
H         -8.38677        7.72588        1.43773
H         -8.14648        8.14603       -0.27055
H         -8.61961        9.39011        0.89643
H         -5.84687       11.61524        7.99209
H         -5.37314        9.96820        8.40499
H         -8.26916       10.94312        8.14215
H         -7.40482       10.65343        9.66159
H         -7.78349        9.29940        8.57930
H         -7.68524       12.64050        6.23461
H         -5.22941       13.18158        4.45264
H         -5.87412       15.47976        3.28494
H         -6.99349       15.01627        7.40348
H         -7.26977       19.75139        5.60533
H         -6.35307       20.17708        1.42714
H         -6.67342       22.18554        5.84764
H         -9.20894       25.24502        2.03769
H         -7.34604       26.77072        3.96690
H         -8.52234       27.45685        2.73487
