77

C         -2.83842      -10.46065        5.68587
C         -2.32582       -9.23951        5.22788
C         -2.71176       -8.64931        4.00205
F         -2.14533       -7.46508        3.71791
C         -3.63677       -9.21573        3.09513
C         -4.19407      -10.46231        3.51922
C         -3.78404      -11.08428        4.84132
N         -4.39633      -12.24906        5.09798
S         -5.39305      -12.55396        3.80988
N         -5.08222      -11.23198        2.86120
C         -3.98912       -8.65448        1.78240
C         -5.19344       -8.73531        1.07351
C         -5.04654       -8.25721       -0.24553
C         -3.78726       -7.74726       -0.46114
S         -2.76323       -7.84725        0.83889
C         -3.65406       -7.42525       -1.82675
C         -4.81001       -7.77450       -2.47885
C         -5.79482       -8.23751       -1.50283
C         -7.08462       -8.56386       -1.71477
C         -7.67267       -8.48502       -3.00740
N         -8.15101       -8.42990       -4.06303
C         -7.93071       -8.98296       -0.65505
N         -8.62943       -9.32399        0.20943
C         -4.64505       -7.71768       -3.87853
C         -3.34621       -7.32381       -4.24135
S         -2.46057       -6.83962       -2.81070
C         -2.69985       -7.34591       -5.58775
C         -1.30905       -7.52031       -5.82732
C         -0.76427       -7.69090       -7.14940
N          0.57779       -7.78222       -7.30435
C          1.39538       -7.78524       -6.22591
C          0.88130       -7.67304       -4.96845
N         -0.45534       -7.54500       -4.77714
C          1.69214       -7.67212       -3.78855
N          2.37307       -7.67257       -2.84982
C          2.79381       -7.93340       -6.49491
N          3.93090       -8.05603       -6.69302
C         -1.57488       -7.78873       -8.30497
C         -2.96627       -7.55631       -8.12012
C         -3.53142       -7.30131       -6.74702
N         -4.85258       -7.05268       -6.78443
S         -5.35495       -7.19000       -8.34855
N         -3.91879       -7.56238       -9.06963
C         -1.07360       -8.15627       -9.65548
C         -1.52889       -7.78962      -10.93068
C         -0.78936       -8.42368      -11.95717
C          0.22336       -9.19189      -11.43760
S          0.23721       -9.31037       -9.79102
C          0.93618       -9.79610      -12.48881
C          0.35664       -9.44235      -13.68356
C         -0.77103       -8.54219      -13.41904
C         -1.62970       -8.00426      -14.30699
C         -2.73880       -7.21897      -13.89022
N         -3.65177       -6.58775      -13.54920
C         -1.49072       -8.21736      -15.70534
N         -1.38029       -8.38348      -16.84948
C          0.96010      -10.12724      -14.76365
C          1.96167      -11.00038      -14.32271
S          2.21637      -10.83897      -12.60338
C          2.72926      -12.01950      -15.05217
C          4.05163      -12.39559      -14.71761
C          4.75570      -13.43566      -15.35805
F          6.00220      -13.69755      -14.93829
C          4.23278      -14.21689      -16.38973
C          2.91738      -13.89374      -16.78409
C          2.13876      -12.77092      -16.11631
N          0.90556      -12.63648      -16.63637
S          0.74528      -13.78044      -17.82656
N          2.22612      -14.52122      -17.74718
H         -2.53280      -10.90404        6.62606
H         -1.59165       -8.71234        5.83653
H         -6.07790       -9.21161        1.48014
H         -5.38534       -8.04776       -4.59617
H         -2.36612       -7.11866      -11.08260
H          0.65371      -10.07021      -15.80107
H          4.57885      -11.87846      -13.91587
H          4.79949      -15.01720      -16.84688
