97

C         -0.06773        2.88760       -4.96613
C         -0.43025        2.65799       -6.29844
C          0.46122        2.04607       -7.17532
C          1.73606        1.69960       -6.73793
C          2.13920        1.98788       -5.42836
C          3.47035        1.77842       -5.05943
C          3.88500        2.19041       -3.80736
C          2.94722        2.58805       -2.84425
C          1.61546        2.79193       -3.16955
C          1.21543        2.55618       -4.50237
C          3.62616        2.73366       -1.52455
O          3.11595        3.02184       -0.47073
C          5.07954        2.38176       -1.78956
C          5.22766        2.41547       -3.23986
C          6.25969        2.94665       -3.93704
C          7.31650        3.63024       -3.27548
N          8.14604        4.24626       -2.74048
C          6.29233        2.97260       -5.35988
N          6.32040        2.95654       -6.51959
C          5.89190        1.91449       -0.82337
C          7.21514        1.23817       -0.92044
C          7.56996        0.30851       -1.95780
C          8.91163       -0.50400       -1.93248
N          8.98290       -1.34363       -2.98267
S          7.68197       -1.06765       -3.95402
N          6.83095        0.01225       -3.04262
C          9.90101       -0.36382       -0.87308
C          9.46188        0.56358        0.13085
C         10.16185        0.87047        1.27710
S          9.36584        2.02006        2.27044
C          8.08658        2.20075        1.15258
C          8.19524        1.32432        0.09463
C         11.21427       -1.09693       -0.91643
C         12.07127       -1.15312       -2.04609
C         13.34169       -1.88285       -2.08572
N         14.06136       -1.86581       -3.22411
C         13.54225       -1.29553       -4.32797
C         12.35416       -0.62561       -4.29183
N         11.65747       -0.49630       -3.14868
C         13.86247       -2.64463       -1.00789
C         12.99824       -2.64957        0.13412
C         11.68805       -1.86647        0.18384
N         11.06033       -2.01196        1.36580
S         12.03400       -2.90771        2.34845
N         13.18981       -3.35087        1.26651
C         15.17096       -3.40100       -0.98905
C         16.05473       -3.38252        0.18313
C         17.37603       -4.20778        0.26074
N         17.96861       -4.14150        1.46608
S         17.05503       -3.11947        2.38807
N         15.88961       -2.66059        1.30816
C         17.86005       -4.94380       -0.85266
C         17.01754       -4.91944       -1.97581
C         17.34380       -5.56353       -3.14941
S         16.12624       -5.37880       -4.33114
C         15.12793       -4.48724       -3.25479
C         15.72778       -4.21224       -2.04508
C         19.16751       -5.61044       -0.83181
C         20.30677       -5.00249       -1.20440
C         21.63181       -5.57778       -1.51452
C         22.24033       -6.62881       -0.90421
C         23.56767       -7.03911       -1.22504
N         24.64580       -7.37675       -1.49873
C         21.61211       -7.37498        0.12855
N         21.08855       -8.00625        0.96083
C         22.23769       -4.67803       -2.54039
C         21.49330       -3.49078       -2.58108
C         21.73274       -2.45348       -3.46754
C         22.73671       -2.62783       -4.42079
C         22.96362       -1.65017       -5.39955
C         23.91850       -1.85237       -6.39479
C         24.66862       -3.02463       -6.41119
C         24.46793       -4.00147       -5.43260
C         23.50019       -3.82998       -4.43120
C         23.25343       -4.84235       -3.47437
C         20.33372       -3.57731       -1.68943
O         19.55579       -2.67486       -1.46327
H         -0.78788        3.36391       -4.30444
H         -1.41169        2.96051       -6.65561
H          0.17479        1.85675       -8.20680
H          2.42582        1.23818       -7.44259
H          4.17333        1.35859       -5.77307
H          0.91808        3.16389       -2.42396
H          5.50131        1.95313        0.19673
H         11.10000        0.48255        1.64098
H          7.32491        2.94342        1.35133
H         14.10817       -1.41940       -5.24405
H         11.91373       -0.18463       -5.17795
H         18.22804       -6.13789       -3.39170
H         14.16308       -4.18880       -3.62997
H         19.11745       -6.66924       -0.59768
H         21.10214       -1.56837       -3.45165
H         22.38094       -0.73083       -5.40973
H         24.06962       -1.09739       -7.16246
H         25.40756       -3.18358       -7.19279
H         25.06536       -4.91024       -5.47421
H         23.82943       -5.76082       -3.53347
