103

C         -0.77700       -1.15348        2.05344
C         -1.94827       -1.62102        1.55393
C         -3.11230       -1.98777        2.36816
C         -2.91845       -1.86382        3.77184
C         -1.68731       -1.39891        4.25556
C         -0.63854       -1.05220        3.41552
C          0.53019       -0.58105        4.17573
C          1.71475       -0.14533        3.65368
C          2.02211       -0.13834        2.24734
N          2.30145       -0.11877        1.12410
C          2.79076        0.38130        4.43762
N          3.68901        0.81474        5.02216
C          0.12868       -0.71021        5.60389
C          0.88533       -0.51331        6.68853
C         -1.26985       -1.17499        5.62542
O         -1.95476       -1.36831        6.61796
C         -4.52387       -2.37728        1.69010
F         -3.97600       -2.16795        0.55295
F         -5.19070       -2.50153        2.90155
F         -4.91881       -1.19275        1.16654
C         -4.43900       -3.83240        1.10277
C         -3.88508       -4.26465       -0.16605
C         -4.19999       -5.50421       -0.45659
C         -4.93691       -6.11520        0.49678
S         -5.29270       -5.15010        1.81072
C         -5.14202       -7.44380        0.06996
C         -4.50471       -7.60987       -1.12091
C         -3.90103       -6.36795       -1.57094
C         -3.24534       -6.10430       -2.72633
C         -2.99524       -7.15620       -3.67166
N         -2.79116       -7.99909       -4.43640
C         -2.78695       -4.77622       -3.07991
N         -2.42516       -3.70928       -3.35131
C         -4.58755       -8.86449       -1.60439
C         -5.31843       -9.66189       -0.73303
S         -5.88467       -8.82143        0.63411
C         -5.50144      -11.05189       -1.01866
C         -6.17283      -12.02445       -0.32209
C         -6.09282      -13.29023       -0.91123
N         -6.70732      -14.35572       -0.32242
C         -7.39834      -14.16588        0.84650
C         -8.08766      -15.28127        1.54165
O         -8.05963      -16.41908        1.09721
C         -8.82186      -14.99865        2.79854
C         -8.86959      -13.75852        3.31024
C         -8.20217      -12.63746        2.65508
O         -8.26937      -11.51859        3.13904
C         -7.46401      -12.86939        1.41889
N         -6.84665      -11.82493        0.82424
C         -5.32697      -13.28139       -2.09170
S         -4.81267      -11.73826       -2.35853
C         -4.95234      -14.33045       -3.02448
C         -5.32152      -15.66289       -2.89417
C         -4.91994      -16.39110       -3.99649
C         -4.24379      -15.65375       -4.92499
S         -4.06881      -14.05743       -4.47444
C         -3.93869      -16.49143       -6.05308
C         -4.44820      -17.72596       -5.81815
C         -5.08284      -17.78012       -4.48830
C         -5.64822      -18.85583       -3.88920
C         -5.73613      -20.13137       -4.56401
N         -5.80856      -21.15505       -5.10096
C         -6.16490      -18.78822       -2.54460
N         -6.57824      -18.72887       -1.46506
C         -4.22975      -18.63039       -6.83096
C         -3.48404      -18.08256       -7.88975
S         -3.16639      -16.41997       -7.53581
C         -3.02005      -18.77679       -9.16450
C         -2.65148      -19.33053      -10.52360
C         -2.92993      -20.63601      -10.96884
C         -2.59496      -20.96967      -12.24374
C         -2.01625      -20.07013      -13.11795
C         -1.72958      -18.76720      -12.71303
C         -2.03051      -18.40710      -11.42397
C         -1.77480      -20.73577      -14.40549
C         -1.18085      -20.17938      -15.49247
C         -0.78507      -18.80045      -15.56835
N         -0.45274      -17.69689      -15.66628
C         -0.86097      -20.90269      -16.68381
N         -0.58129      -21.44038      -17.66798
C         -2.30273      -22.12613      -14.23703
C         -2.38586      -23.09619      -15.14703
C         -2.78729      -22.24489      -12.86504
O         -3.26278      -23.23503      -12.32691
F         -3.61123      -19.96263       -8.76171
F         -3.79878      -17.85424       -9.85132
F         -1.67601      -18.65935       -8.82095
H         -0.05143       -0.87913        1.31506
H         -1.93562       -1.64362        0.47029
H         -3.70723       -2.09224        4.47285
H          1.91408       -0.20756        6.63129
H          0.49638       -0.68888        7.67898
H         -3.33054       -3.60614       -0.83069
H         -4.14382       -9.19903       -2.52653
H         -9.33129      -15.79879        3.31734
H         -9.40218      -13.54870        4.22179
H         -5.89390      -16.05645       -2.07807
H         -4.56091      -19.64880       -6.80400
H         -3.41338      -21.37567      -10.34851
H         -1.29521      -18.01199      -13.33106
H         -1.84521      -17.37794      -11.10928
H         -2.04422      -22.96731      -16.15410
H         -2.83228      -24.04851      -14.90555
