99

C          0.78203        4.29962        0.53984
C          1.44951        3.72586       -0.49280
C          2.84425        3.91019       -0.70724
N          3.98036        4.06007       -0.88767
C          0.82423        2.84200       -1.41809
N          0.30587        2.12648       -2.17552
C          1.37807        5.12919        1.63964
C          0.43837        5.22069        2.67028
C          0.63457        5.93164        3.84869
C          1.87028        6.58910        4.02521
C          2.83172        6.49588        3.00752
C          2.60011        5.78101        1.79930
S          4.27309        7.34914        3.44517
C          3.62032        7.82900        4.92698
C          2.34169        7.38367        5.12571
Br         4.55193        8.86687        6.17843
C         -0.78915        4.48811        2.33307
O         -1.68579        4.23605        3.10994
C         -0.64771        4.09822        0.89092
C         -1.69400        3.80968        0.09479
C         -3.04927        3.79262        0.52994
C         -3.81620        2.72984        1.01586
C         -5.14741        3.13236        1.27102
C         -5.33983        4.45023        0.92801
S         -3.99630        5.24259        0.36446
C         -6.69114        4.78359        1.13326
C         -7.35975        3.69228        1.63206
C         -6.41534        2.57627        1.75976
C         -6.64832        1.33366        2.22542
C         -5.61607        0.35691        2.28476
N         -4.77376       -0.44047        2.32630
C         -7.93048        0.93592        2.69390
N         -8.97270        0.60483        3.08478
C         -8.72979        3.98463        1.83703
C         -9.04645        5.30088        1.46169
S         -7.62946        6.10991        0.83626
C        -10.35193        6.01382        1.46326
C        -10.51950        7.40224        1.70911
C        -11.81181        8.04661        1.65977
N        -11.90587        9.36875        1.92948
C        -10.78647       10.07783        2.16424
C         -9.55976        9.47505        2.18898
N         -9.42610        8.14677        1.99646
F         -8.45162       10.19852        2.39761
F        -10.90464       11.39753        2.36353
C        -12.99881        7.34819        1.33096
C        -12.87327        5.94975        1.09118
C        -11.53205        5.27145        1.16588
N        -11.61355        3.95397        0.90415
S        -13.19764        3.59056        0.62227
N        -13.85913        5.09433        0.76407
C        -14.33496        7.97722        1.18394
C        -15.61210        7.45773        1.44130
C        -16.62884        8.37266        1.09264
C        -16.09736        9.55408        0.63681
S        -14.45390        9.58304        0.50435
C        -17.13803       10.42143        0.27111
C        -18.33875        9.77676        0.46117
C        -18.08761        8.44444        1.01182
C        -18.99163        7.49699        1.32879
C        -18.59718        6.22695        1.82818
N        -18.28312        5.18446        2.23439
C        -20.38641        7.71186        1.15349
N        -21.52208        7.89233        0.99196
C        -19.41730       10.57149        0.02436
C        -18.96598       11.81305       -0.42136
S        -17.23602       11.95085       -0.36260
C        -19.70380       12.85373       -1.01402
C        -20.21993       13.92422       -0.40123
C        -20.31234       14.52328        0.94935
C        -19.95893       14.03821        2.17060
C        -20.31104       14.68401        3.38821
N        -20.60416       15.18392        4.39732
C        -19.24398       12.83827        2.43852
N        -18.65999       11.91514        2.83104
C        -20.98912       15.85940        0.75480
C        -21.37170       15.99731       -0.57798
C        -20.94602       14.83699       -1.35449
O        -21.14719       14.68164       -2.54190
C        -22.01205       17.11440       -1.11005
C        -22.27235       18.19515       -0.24139
C        -21.86471       18.08889        1.09424
C        -21.21491       16.93787        1.60473
S        -22.24349       19.51991        1.98268
C        -22.92726       20.25287        0.62650
C        -22.89309       19.46584       -0.49378
Br       -23.65116       21.97936        0.65745
H         -0.14546        5.97920        4.60371
H          3.38385        5.77290        1.05020
H          1.75799        7.59595        6.01375
H         -1.57226        3.65523       -0.97063
H         -3.40462        1.73763        1.15528
H         -9.47097        3.28928        2.21437
H        -15.77298        6.45669        1.82251
H        -20.46433       10.29377        0.01390
H        -19.83679       12.73657       -2.09186
H        -22.27803       17.15351       -2.16315
H        -20.89900       16.96462        2.63887
H        -23.28033       19.77152       -1.45810
