92

C         -7.65720       -4.69437        3.31443
C         -6.54901       -5.46969        3.35555
C         -6.54312       -6.77300        3.92398
N         -6.53826       -7.83666        4.39202
C         -5.31527       -5.05937        2.77428
N         -4.31275       -4.70675        2.30413
C         -9.03176       -5.07145        3.76635
C         -9.94604       -4.20671        3.15829
C        -11.31713       -4.23594        3.38001
C        -11.81256       -5.20045        4.28346
C        -10.90517       -6.07775        4.89848
C         -9.50664       -6.02545        4.65940
S        -11.72527       -7.17595        5.95255
C        -13.22774       -6.49021        5.60522
C        -13.15807       -5.44563        4.72360
Br       -14.83255       -7.09967        6.35467
C         -9.25102       -3.21742        2.32533
O         -9.78264       -2.47000        1.53211
C         -7.79310       -3.37467        2.65490
C         -6.90208       -2.37235        2.55661
C         -7.25986       -1.08018        2.08217
C         -7.22786       -0.57998        0.78054
C         -7.71864        0.74199        0.73271
C         -8.09339        1.18702        1.98056
S         -7.83225        0.11139        3.21711
C         -8.64837        2.47651        1.85763
C         -8.62108        2.85104        0.53263
C         -7.99501        1.78692       -0.25440
C         -7.71160        1.77977       -1.57128
C         -7.07671        0.66906       -2.19212
N         -6.55299       -0.23489       -2.69769
C         -8.00165        2.89443       -2.40446
N         -8.22693        3.80823       -3.08362
C         -9.23442        4.10712        0.34052
C         -9.68670        4.63612        1.55226
S         -9.34888        3.57520        2.88414
C        -10.39094        5.88494        1.72214
N        -11.15419        6.37019        0.75978
C        -11.64797        7.56966        1.16971
C        -11.26630        8.02468        2.39746
S        -10.25022        6.85106        3.15866
N        -11.70292        9.25592        2.77785
C        -12.46813        9.73854        1.81612
S        -12.69101        8.72631        0.42146
C        -13.04167       11.05943        1.91077
C        -12.49673       12.15309        2.59130
C        -13.32658       13.28919        2.47128
C        -14.46184       13.00135        1.74567
S        -14.57127       11.44536        1.18774
C        -15.27395       14.14892        1.68311
C        -14.65377       15.16788        2.36944
C        -13.37447       14.69078        2.89752
C        -12.46003       15.39219        3.59782
C        -11.23888       14.80386        4.02541
N        -10.23624       14.32900        4.36878
C        -12.67303       16.75932        3.93521
N        -12.88436       17.86891        4.19365
C        -15.43170       16.34346        2.34905
C        -16.64663       16.14390        1.68755
S        -16.73042       14.54394        0.99766
C        -17.72709       17.03720        1.44294
C        -18.09887       18.03301        2.25865
C        -17.66567       18.51260        3.57696
C        -17.47156       17.77788        4.70051
C        -17.07953       18.35238        5.94412
N        -16.73933       18.81543        6.95244
C        -17.75439       16.38058        4.76203
N        -18.01103       15.25534        4.87407
C        -17.82433       19.99395        3.54915
C        -18.64403       20.32141        2.46301
C        -18.91573       19.12829        1.64209
O        -19.59389       19.08265        0.63783
C        -19.09179       21.60787        2.19339
C        -18.70010       22.63499        3.08232
C        -17.83790       22.31821        4.14409
C        -17.36514       21.00537        4.38060
S        -17.47154       23.71522        5.09097
C        -18.46677       24.69377        4.14436
C        -19.04991       24.02886        3.09898
Br       -18.74351       26.51197        4.49677
H        -11.97351       -3.51943        2.89340
H         -8.86046       -6.71097        5.19646
H        -14.01789       -4.87535        4.39229
H         -5.88665       -2.46681        2.92707
H         -6.90589       -1.18091       -0.06122
H         -9.37367        4.62552       -0.60206
H        -11.55312       12.09029        3.12319
H        -15.15398       17.29142        2.78909
H        -18.21632       16.94827        0.47032
H        -19.73243       21.80595        1.33831
H        -16.68561       20.83294        5.20774
H        -19.71334       24.49634        2.38145
