99

C          3.39859       -0.86228        2.93207
C          4.59193       -1.52747        3.20007
F          5.54861       -0.89924        3.89653
C          4.78568       -2.83262        2.77058
F          5.92730       -3.47419        3.05348
C          3.79239       -3.49654        2.06048
C          2.57489       -2.85549        1.79573
C          2.36672       -1.51449        2.24122
C          1.12503       -0.87668        2.02738
C          0.09249       -1.57129        1.41185
C          0.32968       -2.89104        1.00155
C          1.54547       -3.53884        1.14665
C         -0.91825       -3.53033        0.56824
O         -1.00736       -4.63989        0.08637
C         -2.00651       -2.55190        0.91831
C         -1.34624       -1.25455        1.17148
C         -1.90449       -0.02455        1.07927
C         -3.27882        0.16672        0.75182
N         -4.40209        0.31944        0.50981
C         -1.16664        1.17730        1.26855
N         -0.54757        2.13044        1.42330
C         -3.26918       -2.92829        1.18671
C         -3.72091       -4.31559        1.10964
C         -4.25720       -4.85497       -0.08409
C         -4.67031       -6.35186       -0.18537
N         -5.30961       -6.56928       -1.35155
S         -5.14320       -5.21941       -2.29402
N         -4.46362       -4.16655       -1.22059
C         -4.41479       -7.33043        0.89239
C         -3.83733       -6.67866        2.04277
C         -3.32115       -7.29766        3.15946
S         -2.92236       -6.20395        4.42400
C         -3.15807       -4.85480        3.40801
C         -3.57021       -5.23880        2.15089
C         -4.79238       -8.79189        0.74652
C         -5.26548       -9.67850        1.74985
C         -5.65251      -11.06975        1.51231
N         -5.88963      -11.85610        2.57826
C         -5.73753      -11.40370        3.84064
C         -5.53581      -10.07191        4.05301
N         -5.33480       -9.21473        3.01418
C         -5.52859       -9.49449        5.35243
N         -5.53703       -9.03711        6.41777
C         -5.81851      -12.37882        4.89109
N         -5.85198      -13.16633        5.75247
C         -5.79183      -11.65813        0.22367
C         -5.25862      -10.81964       -0.79883
C         -4.68855       -9.43824       -0.52119
N         -4.03930       -8.95753       -1.59602
S         -4.43855       -9.88598       -2.89016
N         -5.16826      -11.13067       -2.10361
C         -6.30984      -13.05054       -0.08233
C         -5.97200      -14.21777        0.74316
C         -6.39459      -15.67255        0.37317
N         -5.86373      -16.58410        1.20875
S         -5.12225      -15.76871        2.43207
N         -5.23723      -14.23054        1.86963
C         -7.22060      -15.95931       -0.75230
C         -7.58508      -14.81479       -1.49105
C         -8.45228      -14.88445       -2.56191
S         -8.60093      -13.39146       -3.36507
C         -7.61985      -12.60591       -2.19697
C         -7.14138      -13.43801       -1.20544
C         -7.50478      -17.32015       -1.24894
C         -7.62787      -18.51923       -0.65345
C         -7.57765      -19.72061       -1.55805
O         -7.81173      -19.77327       -2.74677
C         -7.13407      -20.83785       -0.70970
C         -6.86726      -22.12747       -1.13725
C         -6.41948      -23.05212       -0.18913
C         -6.19013      -22.63266        1.15681
C         -5.72504      -23.56756        2.09252
C         -5.52535      -24.89270        1.71778
C         -5.76767      -25.30196        0.41431
C         -6.20105      -24.39114       -0.54326
F         -5.59303      -26.58411        0.06669
F         -5.10800      -25.77602        2.63472
C         -6.45794      -21.30303        1.54401
C         -6.98782      -20.41201        0.61792
C         -7.52089      -19.03330        0.71333
C         -8.06123      -18.47804        1.82613
C         -8.87693      -17.32131        1.75403
N         -9.53680      -16.35781        1.71232
C         -7.89398      -19.02635        3.12688
N         -7.72399      -19.45671        4.18758
H          3.28271        0.15654        3.29312
H          3.97226       -4.52195        1.74813
H          0.98445        0.13019        2.41000
H          1.65300       -4.57088        0.82121
H         -4.01897       -2.24490        1.57005
H         -3.17641       -8.34374        3.36599
H         -2.96966       -3.85991        3.79035
H         -9.00615      -15.73197       -2.94530
H         -7.46384      -11.55645       -2.37658
H         -7.55109      -17.34449       -2.34177
H         -7.02221      -22.39648       -2.17872
H         -5.53300      -23.28705        3.12513
H         -6.38041      -24.74596       -1.55475
H         -6.26181      -21.00603        2.56995
