109

C          0.63353        2.39598        4.13163
C         -0.51750        2.68023        4.77877
C         -0.52536        3.26100        6.07853
N         -0.52047        3.74662        7.13185
C         -1.78136        2.26939        4.26119
N         -2.81191        1.92412        3.85366
C          1.97620        2.36905        4.73617
C          2.62487        1.21492        4.26143
C          3.89994        0.86085        4.65814
C          4.60754        1.77524        5.45227
C          4.01135        3.02366        5.81107
C          2.67034        3.29420        5.49001
C          4.79316        3.99410        6.44988
C          6.12322        3.73246        6.77857
C          6.67920        2.48606        6.50341
C          5.92742        1.51272        5.84347
C          1.85381        0.64826        3.12156
O          2.12420       -0.32824        2.45870
C          0.77656        1.67087        2.87573
C          0.54791        2.07622        1.61333
C          0.10148        3.40184        1.30697
S         -1.56324        3.73610        1.14779
C         -1.32821        5.41637        0.89444
C          0.02720        5.69915        0.74812
C          0.85338        4.53907        1.02618
C          2.36239        4.60744        0.98710
C          2.92437        6.03229        1.00948
N          2.98342        6.51743        2.43911
O          4.09538        6.84464        2.86539
O          1.93099        6.57786        3.08514
C          2.13967        7.05697        0.20953
N          2.44212        6.79715       -1.24944
O          1.73466        5.99439       -1.86678
O          3.42814        7.38125       -1.71274
C          0.62712        7.05419        0.42803
C         -2.45641        6.32186        0.83994
S         -2.52427        7.73676       -0.16809
C         -4.02973        8.31260        0.47972
C         -4.45994        7.35522        1.33151
C         -3.62567        6.27468        1.52748
N         -4.06516        5.31050        2.39513
C         -5.30010        5.81817        2.78550
C         -6.15976        5.13630        3.69636
N         -6.85674        4.58653        4.43845
C         -5.56693        7.05593        2.16443
C         -4.55074        9.56226        0.05568
C         -5.31183       10.31077        0.85950
C         -5.83902       11.59888        0.47692
C         -6.12316       12.57995        1.35879
C         -6.65604       13.73126        0.62419
C         -6.73307       13.30018       -0.77566
C         -6.24838       12.04879       -0.84461
C         -7.24163       13.99235       -1.89235
N         -7.65920       14.55272       -2.82458
C         -6.97753       14.93068        1.16264
C         -7.45763       16.09765        0.41844
C         -7.64511       17.11385        1.28297
C         -7.28529       16.64966        2.61242
C         -6.90291       15.36385        2.56489
C         -6.52311       14.62783        3.70941
N         -6.19808       14.02936        4.64962
C         -8.10044       18.42368        0.88785
C         -9.20003       19.05083        1.33511
C         -9.77964       20.34855        0.92049
C         -9.10522       21.44629        0.49727
C         -9.74167       22.69301        0.23471
N        -10.25634       23.71016        0.01775
C         -7.68764       21.46130        0.35197
N         -6.53299       21.46558        0.23309
C        -11.23221       20.28469        1.25569
C        -11.44869       19.16411        2.06718
C        -10.21399       18.39075        2.22889
O        -10.09948       17.41177        2.93538
C        -12.68571       18.80709        2.57708
C        -13.78553       19.59904        2.24330
C        -13.61092       20.72838        1.39465
C        -12.32906       21.05903        0.90200
C        -14.73400       21.49720        1.05588
C        -16.00025       21.16703        1.54339
C        -16.16425       20.06325        2.37544
C        -15.06331       19.28184        2.72312
H          4.35952       -0.05015        4.28532
H          2.21766        4.24295        5.76792
H          4.38269        4.97748        6.67337
H          6.72484        4.50451        7.25214
H          7.70853        2.27813        6.78511
H          6.39210        0.55436        5.62014
H          0.92235        1.47894        0.78277
H          2.68025        4.12655        0.05219
H          2.79312        4.01652        1.80444
H          3.97381        6.00221        0.68449
H          2.51415        8.07648        0.38014
H          0.14660        7.48759       -0.45383
H          0.39845        7.72089        1.27031
H         -3.60902        4.43804        2.63920
H         -6.46522        7.64451        2.30205
H         -4.26952        9.92229       -0.93099
H         -5.53620        9.99312        1.87758
H         -5.94776       12.50507        2.42028
H         -6.18948       11.43373       -1.73173
H         -7.64301       16.16457       -0.64023
H         -7.36026       17.26338        3.49875
H         -7.47296       18.87002        0.12000
H        -12.78255       17.92052        3.19797
H        -12.23750       21.90983        0.23406
H        -14.63486       22.36584        0.40756
H        -16.86050       21.77421        1.27261
H        -17.15090       19.80808        2.75398
H        -15.21343       18.42053        3.37126
