102

C          0.24034      -11.82693       15.99945
C          1.05496      -10.71902       16.23312
F          1.80001      -10.67690       17.34609
C          1.09933       -9.66821       15.32831
F          1.89237       -8.61185       15.55387
C          0.31718       -9.69670       14.18196
C         -0.52254      -10.79144       13.93647
C         -0.55776      -11.89170       14.84540
C         -1.38303      -13.01344       14.57560
C         -2.18454      -13.02601       13.43708
C         -2.14401      -11.90546       12.59618
C         -1.33239      -10.80396       12.80366
C         -3.05400      -12.07341       11.45920
O         -3.45698      -11.18172       10.74426
C         -3.42998      -13.52132       11.46434
C         -3.13506      -14.01291       12.83110
C         -3.74126      -15.04295       13.46486
C         -4.75076      -15.83785       12.83728
N         -5.55962      -16.47956       12.31304
C         -3.47305      -15.37500       14.82253
N         -3.25208      -15.64441       15.92477
C         -3.78139      -14.19405       10.35443
C         -3.89328      -13.66685        9.01054
C         -2.87657      -13.11019        8.31421
C         -3.35986      -12.75401        6.97474
C         -4.77042      -13.15619        6.95178
C         -5.06439      -13.69346        8.14457
C         -5.73922      -12.96771        5.92681
N         -6.54319      -12.83379        5.10489
C         -2.62362      -12.19069        5.99363
C         -3.07094      -11.97278        4.62027
C         -2.07274      -11.39451        3.91692
C         -0.93923      -11.22585        4.81690
C         -1.24635      -11.69041        6.03842
C         -0.36718      -11.61098        7.13910
N          0.36834      -11.54192        8.03278
C         -2.14587      -11.06794        2.50552
C         -1.50924       -9.99288        2.00916
N         -2.93137      -11.93044        1.77508
N         -2.75795      -11.94800        0.54434
C         -3.63328      -12.68621       -0.19186
C         -4.98078      -12.76584       -0.19347
N         -5.87752      -12.03640        0.68118
O         -5.43134      -11.21779        1.49230
O         -7.08725      -12.26045        0.52681
C         -5.44739      -13.47983       -1.36941
C         -4.39255      -13.81190       -2.13328
C         -3.17339      -13.41065       -1.42268
C         -1.90829      -13.59480       -1.87160
C         -0.72263      -13.06479       -1.20070
C          0.24235      -12.95662       -2.12306
C         -0.24166      -13.53903       -3.36214
N          0.53141      -13.48639       -4.58749
O          1.64544      -12.94538       -4.51667
O          0.02789      -13.90269       -5.63738
C         -1.45315      -14.12705       -3.20100
C         -2.09848      -15.07207       -4.11219
C         -2.46525      -16.35364       -3.87530
C         -2.32583      -17.05452       -2.61305
C         -2.59553      -18.29677       -2.17064
C         -2.49317      -18.39844       -0.66734
O         -2.06078      -17.57710        0.11770
C         -3.07739      -19.68017       -0.28530
C         -3.20798      -20.12280        1.02411
C         -3.75605      -21.38417        1.24593
C         -4.21118      -22.15396        0.13783
C         -4.75568      -23.42710        0.38965
C         -4.82382      -23.92375        1.69115
C         -4.36818      -23.16720        2.76032
C         -3.84380      -21.89847        2.54830
F         -4.41972      -23.65471        4.00741
F         -5.32615      -25.14785        1.90152
C         -4.08935      -21.63946       -1.18157
C         -3.48517      -20.40221       -1.41012
C         -3.09223      -19.61518       -2.64158
C         -2.99944      -20.15390       -3.88290
C         -2.39962      -19.46790       -4.97713
N         -1.91659      -18.95017       -5.89206
C         -3.40851      -21.48917       -4.19794
N         -3.73803      -22.57234       -4.45045
H          0.23653      -12.62690       16.73541
H          0.37022       -8.85750       13.49270
H         -1.36305      -13.84728       15.27194
H         -1.33642       -9.98747       12.08639
H         -3.95523      -15.26720       10.38856
H         -1.87322      -12.99712        8.68877
H         -6.03485      -14.05922        8.44895
H         -4.02447      -12.24791        4.19673
H         -0.00158      -10.78132        4.51671
H         -0.89974       -9.34387        2.62773
H         -1.60822       -9.71496        0.96538
H         -6.48959      -13.62731       -1.61207
H         -4.45406      -14.25419       -3.11346
H         -0.61807      -12.81135       -0.15790
H          1.25118      -12.60787       -1.95502
H         -2.24392      -14.69995       -5.12850
H         -2.92513      -16.88153       -4.70557
H         -1.93269      -16.37708       -1.85136
H         -2.86748      -19.49339        1.84256
H         -5.11627      -24.05766       -0.41919
H         -3.49290      -21.33133        3.40670
H         -4.46569      -22.25549       -1.99231
