100

C         -2.81534       -2.87446       -8.62775
N         -1.91497       -1.86464       -8.85429
C         -0.68247       -2.34463       -8.52908
N          0.51113       -1.71660       -8.57651
C          1.49800       -2.55044       -8.18987
N          2.83574       -2.30613       -8.10023
C          3.44411       -3.46699       -7.66662
N          2.55392       -4.41995       -7.44773
C          1.34369       -3.87153       -7.78510
N          0.12324       -4.45859       -7.73501
C         -0.90042       -3.65914       -8.12632
N         -2.23317       -3.97061       -8.18691
C          4.84805       -3.48275       -7.50114
C          5.71962       -3.77829       -8.49730
N          5.37169       -4.01084       -9.87352
O          6.07869       -4.80287      -10.50537
O          4.45179       -3.33444      -10.35916
C          7.07985       -3.84554       -8.01929
C          7.07688       -3.61625       -6.69926
C          5.69695       -3.35064       -6.27039
C          5.31531       -3.04527       -5.00786
C          3.92849       -2.81535       -4.58488
C          3.92965       -2.54258       -3.27138
C          5.29426       -2.58053       -2.79938
N          5.65242       -2.34190       -1.41898
O          6.74556       -1.82027       -1.17108
O          4.80168       -2.63565       -0.56730
C          6.16878       -2.89259       -3.78225
C          7.59182       -3.10660       -3.59101
C          8.56769       -2.30785       -4.05436
C          9.96126       -2.60823       -3.88185
S         10.99135       -2.30518       -5.23583
C         12.40472       -2.84491       -4.43391
C         12.12252       -3.19005       -3.12425
C         10.71390       -3.11272       -2.82167
S         10.02894       -3.51721       -1.23320
C         10.35651       -5.30545       -1.14062
C          9.76657       -5.86087        0.14328
S         13.38472       -3.72262       -1.98964
C         13.90768       -2.12581       -1.30080
C         14.88623       -2.34999       -0.15934
C         13.63342       -2.89693       -5.15563
C         14.45357       -1.83611       -5.18363
C         15.69230       -1.87783       -5.88309
S         17.08276       -2.48123       -5.08199
C         18.13120       -2.07158       -6.37350
C         17.43490       -1.44998       -7.39623
C         16.00318       -1.43868       -7.16472
C         15.02168       -0.89063       -8.19365
C         14.00741       -1.94034       -8.60283
C         12.67735       -1.81099       -8.51230
C         15.71800       -0.39687       -9.48578
C         17.09977        0.20387       -9.23974
C         18.03449       -0.84654       -8.63654
C         19.54222       -2.36020       -6.31028
N         20.14428       -2.98396       -5.23959
C         21.46153       -3.13138       -5.52898
N         22.43200       -3.69935       -4.78450
C         23.61090       -3.65733       -5.43769
N         24.82309       -4.12887       -5.03817
C         25.71481       -3.85638       -6.04257
N         25.14519       -3.23894       -7.06064
C         23.83016       -3.11067       -6.69872
N         22.82295       -2.54618       -7.41266
C         21.61688       -2.57116       -6.79228
N         20.42250       -2.09794       -7.26292
H         -3.87709       -2.75034       -8.80657
H         -2.11389       -0.93783       -9.20001
H          3.28405       -1.43794       -8.34610
H          7.94084       -4.07807       -8.62903
H          7.96197       -3.66231       -6.09554
H          3.03144       -2.89673       -5.17502
H          3.06682       -2.36349       -2.64639
H          7.83020       -3.99151       -3.00610
H          8.30820       -1.44117       -4.66120
H         11.43017       -5.49723       -1.13433
H          9.92800       -5.81916       -2.00785
H         10.07998       -5.27989        1.01769
H         10.10749       -6.89050        0.29544
H          8.67273       -5.87423        0.10401
H         13.03988       -1.56618       -0.93773
H         14.39153       -1.53961       -2.08701
H         14.41516       -2.87876        0.67666
H         15.24327       -1.38657        0.22005
H         15.76330       -2.92164       -0.48224
H         13.88364       -3.82303       -5.66636
H         14.20146       -0.91389       -4.66759
H         14.51552       -0.03149       -7.73199
H         14.41019       -2.86205       -9.02148
H         12.21364       -0.91957       -8.10339
H         12.02363       -2.61321       -8.84192
H         15.07822        0.34650       -9.97807
H         15.83339       -1.22127      -10.20360
H         17.52106        0.56576      -10.18453
H         17.01564        1.06887       -8.56984
H         18.98796       -0.35790       -8.41056
H         18.22851       -1.64298       -9.36499
H         19.68050       -3.28959       -4.39906
H         25.01573       -4.59644       -4.16508
H         26.75957       -4.13241       -5.97959
