90

C         -4.11434       -2.47248       -1.34228
C         -2.84800       -2.80641       -0.98472
C         -2.29825       -4.10406       -1.17483
N         -1.85249       -5.16807       -1.32950
C         -1.92887       -1.87970       -0.41406
N         -1.17383       -1.13353        0.05479
C         -5.10369       -3.37869       -2.01750
C         -6.19882       -2.61549       -2.42242
C         -7.30659       -3.11948       -3.09562
C         -7.33411       -4.50018       -3.37441
C         -6.24985       -5.28842       -2.96330
C         -5.12668       -4.74665       -2.28121
S         -6.49391       -6.94526       -3.39607
C         -7.99590       -6.61067       -4.09060
C         -8.33972       -5.28755       -4.02969
Br        -9.08901       -7.92109       -4.86285
C         -6.05246       -1.21755       -2.01607
O         -6.86371       -0.34918       -2.26300
C         -4.76215       -1.13252       -1.24740
C         -4.40837       -0.02302       -0.57631
C         -5.18631        1.16327       -0.57878
O         -5.02376        2.18352       -1.50699
C         -6.16524        1.59412        0.27196
C         -6.89829        1.19838        1.43064
O         -6.82437        0.14410        2.03526
N         -7.70302        2.28715        1.70553
C         -7.56066        3.33427        0.81474
O         -8.12594        4.41235        0.82999
C         -6.57380        2.87145       -0.10878
C         -5.88243        3.25167       -1.22595
C         -5.94245        4.45034       -1.98532
C         -5.15319        4.59357       -3.05962
C         -5.15008        5.76520       -3.90594
C         -4.42340        5.93003       -5.03151
C         -3.48309        4.89898       -5.61014
C         -4.57355        7.19500       -5.85105
N         -3.28798        7.85578       -5.94463
C         -2.87463        8.67526       -6.96312
C         -1.70694        9.32491       -7.04355
C         -1.36477       10.12842       -8.16374
S         -0.29411       11.48175       -7.95212
C         -0.16070       11.81811       -9.66340
C         -1.05574       11.00777      -10.30727
C         -1.71758       10.08617       -9.48388
N         -2.55578        9.32428      -10.26312
C         -2.42937        9.76943      -11.59590
O         -3.03156        9.32990      -12.56024
N         -1.48300       10.82127      -11.60184
C          0.67674       12.85614      -10.16356
C          1.92268       13.12135       -9.73832
C          2.81950       12.50660       -8.74980
C          3.08751       11.18461       -8.60348
C          3.95625       10.68115       -7.59583
N          4.63909       10.28212       -6.74495
C          2.59997       10.20970       -9.52447
N          2.26249        9.42007      -10.30578
C          3.65285       13.61022       -8.19292
C          3.54762       14.70448       -9.05936
C          2.51056       14.45766      -10.08097
O          2.17583       15.21294      -10.96782
C          4.31921       15.85411       -8.94238
C          5.26715       15.90366       -7.89301
C          5.32308       14.83672       -6.98235
C          4.49964       13.69109       -7.09563
S          6.52234       15.11049       -5.76945
C          6.99638       16.56520       -6.47921
C          6.25305       16.90211       -7.57900
Br         8.40543       17.61008       -5.82298
H         -8.12547       -2.46510       -3.38233
H         -4.33791       -5.42748       -1.98466
H         -9.26562       -4.88315       -4.42108
H         -3.51046        0.04452        0.02272
H         -8.33440        2.31838        2.48697
H         -6.63472        5.22940       -1.67817
H         -4.48224        3.77945       -3.31708
H         -5.81841        6.56782       -3.59266
H         -3.47454        3.95050       -5.06898
H         -2.45316        5.26970       -5.60471
H         -3.76912        4.66514       -6.64018
H         -5.30084        7.88080       -5.39927
H         -4.95383        6.93814       -6.84721
H         -2.64552        7.71512       -5.17052
H         -3.61682        8.76372       -7.75212
H         -0.98625        9.24405       -6.23431
H         -3.15626        8.57652       -9.95952
H         -1.17722       11.31025      -12.42647
H          0.22047       13.51646      -10.90221
H          4.21700       16.66734       -9.65573
H          4.58605       12.90712       -6.35182
H          6.40929       17.80391       -8.15855
