91

C         28.11819      -10.11278       -3.57951
C         27.21508       -9.48928       -4.33913
C         27.22651       -8.08978       -4.66694
C         26.16318       -7.70514       -5.38646
C         25.22909       -8.78175       -5.68661
S         25.84988      -10.30688       -5.04341
C         24.05543       -8.65788       -6.33818
C         23.47956       -7.41772       -6.82773
C         22.28360       -7.56374       -7.41420
C         21.82057       -8.93155       -7.45802
S         22.97353      -10.00566       -6.70388
C         20.64598       -9.30707       -7.98726
C         20.14863      -10.66992       -8.05974
C         18.99740      -11.10956       -7.52821
C         18.55962      -12.48793       -7.57393
C         17.51353      -12.74075       -6.77584
C         17.06290      -11.58374       -6.02330
S         17.88518      -10.13323       -6.60632
C         16.24535      -11.60533       -4.95417
C         15.64845      -12.78211       -4.34700
C         15.18120      -12.56858       -3.10795
C         15.36395      -11.20753       -2.65886
S         15.88842      -10.18869       -3.97668
C         15.16583      -10.78771       -1.40095
C         15.41754       -9.44331       -0.92844
C         14.81900       -8.91343        0.14693
C         15.10250       -7.57608        0.53145
O         16.02544       -6.77966       -0.11106
C         16.07932       -5.53652        0.47607
C         15.16902       -5.54632        1.51925
C         14.57389       -6.81598        1.55646
O         13.65846       -7.24223        2.44411
O         14.91518       -4.54387        2.38227
C         16.94572       -4.51697        0.00927
C         18.13039       -4.84518       -0.52759
C         19.03336       -3.84169       -1.02551
C         20.36291       -4.00806       -1.09829
C         21.20016       -2.96320       -1.59544
S         22.92124       -3.17130       -1.60630
C         23.13604       -1.61427       -2.33704
N         24.25524       -0.95162       -2.74663
C         23.91379        0.18165       -3.32768
S         22.21905        0.58531       -3.22165
C         21.95009       -0.97389       -2.51362
C         20.82949       -1.72669       -2.09874
C         24.75201        1.14879       -3.94891
C         25.86195        0.87820       -4.64958
C         26.83233        1.83203       -5.23946
C         26.55202        3.06119       -5.74237
C         27.52093        3.85251       -6.40066
N         28.31171        4.50889       -6.94207
C         25.24616        3.62953       -5.71915
N         24.17609        4.08156       -5.69442
C         28.12620        1.09058       -5.38628
C         27.86371       -0.26188       -5.15831
C         26.44279       -0.48578       -4.86819
O         25.89569       -1.55964       -4.95244
C         28.81410       -1.26901       -5.23019
C         30.12874       -0.90329       -5.57787
C         30.41578        0.45212       -5.80454
C         29.42974        1.47157       -5.69531
S         32.08107        0.65942       -6.22862
C         32.38432       -0.99907       -6.12472
C         31.28690       -1.72971       -5.76098
Br        34.05563       -1.76926       -6.47425
H         28.95604       -9.58246       -3.14111
H         28.03669      -11.17388       -3.36415
H         28.01638       -7.42240       -4.35175
H         26.01766       -6.68512       -5.71231
H         23.95686       -6.45540       -6.71173
H         21.70711       -6.74157       -7.81575
H         19.98055       -8.54877       -8.39550
H         20.80385      -11.37478       -8.56317
H         19.06489      -13.23682       -8.16357
H         17.08669      -13.72631       -6.66088
H         15.62677      -13.75075       -4.82434
H         14.74506      -13.33512       -2.48274
H         14.82674      -11.49841       -0.65075
H         16.13329       -8.84703       -1.49516
H         14.08311       -9.46699        0.71994
H         13.49432       -6.51498        3.07331
H         15.52079       -3.79926        2.22544
H         16.64365       -3.48072        0.11797
H         18.44689       -5.88494       -0.60181
H         18.55802       -2.91945       -1.34862
H         20.82011       -4.93202       -0.74895
H         19.81102       -1.36947       -2.18259
H         24.43458        2.17344       -3.79713
H         28.53884       -2.30179       -5.03787
H         29.72572        2.50029       -5.87189
H         31.28485       -2.80662       -5.64027
