106

C          0.58599        1.10901       -4.32272
C         -0.01624        0.56571       -5.40243
C          0.44234       -0.65459       -5.97421
N          0.83395       -1.64440       -6.43521
C         -1.06628        1.23908       -6.09384
N         -1.92701        1.79569       -6.63653
C          1.77716        0.59272       -3.61036
C          2.52300        1.69793       -3.17729
C          3.69485        1.58839       -2.45455
C          4.05234        0.31667       -1.99774
C          3.22558       -0.80931       -2.29464
C          2.11269       -0.67065       -3.15274
C          3.50969       -2.03283       -1.66902
C          4.59673       -2.15688       -0.79996
C          5.44100       -1.07328       -0.57448
C          5.17352        0.15622       -1.17407
C          1.72870        2.93108       -3.35114
O          2.10597        4.06685       -3.16582
C          0.36433        2.44607       -3.75417
C         -0.82778        2.91973       -3.36115
C         -1.03771        3.95107       -2.40238
S         -2.45184        4.91387       -2.53099
C         -2.17712        5.71424       -1.02995
C         -1.01786        5.23794       -0.43908
C         -0.35290        4.26149       -1.24169
C         -0.54904        5.63186        0.85896
N         -0.19743        5.96142        1.91539
C         -3.14468        6.67714       -0.62035
C         -2.82205        7.72386        0.15184
C         -3.76962        8.70813        0.56797
N         -4.03207        8.98749        1.90655
C         -3.41255        8.34954        3.05338
C         -2.16350        9.08259        3.51596
C         -4.98471       10.01136        2.04096
O         -5.45479       10.50211        3.04655
C         -5.29320       10.35509        0.63747
C         -4.50446        9.50645       -0.20896
C         -4.79305        9.85846       -1.60905
O         -4.33221        9.34521       -2.60745
N         -5.71977       10.91422       -1.47543
C         -6.28924       11.58362       -2.62971
C         -7.55230       10.90338       -3.12989
C         -6.02190       11.16364       -0.13354
C         -6.93003       12.18601        0.29699
C         -7.64256       12.11674        1.43198
C         -8.49487       13.17582        1.82698
S         -8.74296       13.48875        3.49248
C         -9.76161       14.84563        3.18787
C         -9.92015       15.02130        1.81960
C         -9.21012       14.06033        1.05087
C        -10.67182       16.06647        1.20526
N        -11.26318       16.91714        0.66840
C        -10.24863       15.57144        4.31540
C        -11.44280       16.18100        4.29817
C        -11.95091       16.96212        5.40479
C        -13.13559       17.59382        5.44866
C        -13.67017       18.49306        6.49403
C        -13.43943       18.42121        7.82849
C        -14.09844       19.26012        8.77126
N        -14.62956       19.94682        9.54022
C        -12.57559       17.44565        8.40680
N        -11.86814       16.65406        8.87548
C        -14.69175       19.35029        5.82598
C        -14.97798       18.80135        4.56994
C        -14.10810       17.65150        4.29992
O        -14.20372       16.92013        3.33728
C        -15.92586       19.31832        3.70134
C        -16.62570       20.46151        4.09782
C        -16.32558       21.07241        5.34807
C        -15.34640       20.51569        6.19782
C        -17.02464       22.22838        5.72319
C        -18.01363       22.76522        4.89742
C        -18.31166       22.16017        3.67983
C        -17.61756       21.01873        3.27789
H          4.24367        2.47928       -2.16242
H          1.48180       -1.53025       -3.36546
H          2.86521       -2.89645       -1.82187
H          4.78335       -3.10146       -0.29455
H          6.29649       -1.17703        0.08854
H          5.83237        0.99687       -0.96463
H         -1.73134        2.39136       -3.66031
H          0.55954        3.76605       -0.92982
H         -4.16829        6.56225       -0.97751
H         -1.81201        7.89802        0.50737
H         -3.17840        7.30836        2.81041
H         -4.13894        8.33481        3.87474
H         -1.42034        9.14560        2.71506
H         -1.70928        8.55767        4.36226
H         -2.39836       10.10368        3.83459
H         -5.54213       11.58386       -3.43194
H         -6.49170       12.63192       -2.39111
H         -7.34955        9.87172       -3.43477
H         -7.95403       11.44210       -3.99409
H         -8.32412       10.87961       -2.35404
H         -6.99936       13.06507       -0.33657
H         -7.55976       11.26408        2.10082
H         -9.21227       14.03384       -0.03276
H         -9.62687       15.60511        5.20866
H        -12.07859       16.09789        3.42276
H        -11.25029       17.05527        6.23098
H        -16.10191       18.84051        2.74100
H        -15.12353       21.02263        7.13130
H        -16.81341       22.71886        6.67161
H        -18.55493       23.65504        5.20908
H        -19.08667       22.57671        3.04125
H        -17.86382       20.56412        2.32020
