85

C         -2.39237       -1.84945       -1.19694
N         -3.01534       -1.56245        0.00983
C         -3.55190       -2.55978        0.90748
C         -4.99120       -2.91600        0.57645
C         -3.09567       -0.17495        0.24836
O         -3.58565        0.43523        1.17548
C         -2.43723        0.38506       -0.94598
C         -2.03033       -0.71008       -1.78193
C         -1.36250       -0.16450       -2.96898
O         -0.86486       -0.81270       -3.86565
N         -1.46902        1.23088       -2.77237
C         -0.98481        2.21849       -3.72722
C         -1.20792        1.83278       -5.18392
C         -2.06802        1.51884       -1.53723
C         -2.24334        2.83626       -1.00791
C         -1.21714        3.64171       -0.69913
C         -1.47529        4.96959       -0.29650
S         -1.53849        6.18489       -1.50961
C         -1.87355        7.33492       -0.26660
N         -1.94362        6.78609        0.93016
N         -1.69516        5.42641        0.91717
C         -2.09666        8.70708       -0.55640
C         -1.54831        9.32054       -1.61745
C         -1.77873       10.68111       -1.93914
S         -2.12913       11.87194       -0.74180
C         -2.19838       13.03213       -2.00455
N         -1.95795       12.53353       -3.19765
N         -1.70020       11.18316       -3.15662
C         -2.45490       14.37939       -1.68173
C         -1.41933       15.19910       -1.46235
C         -1.64754       16.56408       -1.17600
S         -0.43734       17.70819       -1.58568
C         -1.46348       18.94952       -0.95500
N         -2.62082       18.48131       -0.53048
N         -2.72238       17.11068       -0.64463
C         -1.07067       20.31707       -0.94969
C          0.21582       20.69033       -0.87544
C          0.67750       22.04040       -0.76411
N          0.49983       23.05109       -1.70772
C         -0.16808       22.94443       -2.99084
C         -1.34190       23.90748       -3.10982
C          1.17570       24.23357       -1.32138
O          1.29624       25.29159       -1.90414
C          1.74489       23.87229       -0.01335
C          1.41079       22.50396        0.24919
C          2.00652       22.12404        1.53874
O          1.97625       21.02876        2.06281
N          2.60226       23.32745        1.96927
C          3.32760       23.41236        3.21919
C          4.80506       23.09377        3.06871
C          2.45259       24.34094        1.01841
C          2.98455       25.66419        1.12918
C          2.69738       26.51848        2.11910
H         -2.25021       -2.85873       -1.55276
H         -3.50327       -2.16663        1.92896
H         -2.91722       -3.45118        0.85936
H         -5.64311       -2.03975        0.65479
H         -5.35914       -3.67991        1.26842
H         -5.07775       -3.30735       -0.44257
H          0.08162        2.38295       -3.53920
H         -1.50986        3.16509       -3.55841
H         -0.57176        0.99293       -5.47770
H         -0.96019        2.66962       -5.84392
H         -2.25095        1.54984       -5.35973
H         -3.27282        3.15943       -0.85496
H         -0.18200        3.33851       -0.81506
H         -2.73383        9.23134        0.14988
H         -0.91206        8.79288       -2.32177
H         -3.48616       14.71534       -1.64939
H         -0.39425       14.84138       -1.53011
H         -1.86975       21.05247       -0.94019
H          1.00977       19.94937       -0.78781
H         -0.51624       21.92232       -3.16446
H          0.56758       23.17599       -3.76964
H         -2.06115       23.75432       -2.29892
H         -1.85790       23.76619       -4.06439
H         -1.00831       24.94913       -3.06606
H          2.88256       22.69606        3.91920
H          3.19749       24.40119        3.66422
H          4.95266       22.07268        2.70310
H          5.30738       23.18473        4.03740
H          5.29213       23.77796        2.36701
H          3.61759       26.00315        0.30759
H          2.02229       26.25280        2.92728
H          3.12156       27.51638        2.13132
