108

C         -0.67624        2.48434       -5.62184
N         -1.81965        2.05546       -4.96024
C         -2.82462        1.18959       -5.54834
C         -3.48193        1.79749       -6.77879
C         -1.87245        2.54223       -3.63405
O         -2.71180        2.38276       -2.77214
C         -0.62408        3.32842       -3.52845
C          0.03937        3.25189       -4.80490
C          1.27231        4.04652       -4.73342
O          2.06268        4.24226       -5.63253
N          1.26795        4.50046       -3.39762
C          2.29081        5.39206       -2.90215
C          1.93191        6.85149       -3.13256
C          0.13060        4.06867       -2.71005
C         -0.18641        4.30881       -1.34488
S         -1.06269        5.72093       -0.88463
C         -1.37363        5.19038        0.74950
C         -0.75031        3.95575        0.91999
C          0.04577        3.54242       -0.21915
C          0.87834        2.41185       -0.22415
C          0.86210        1.67995        0.99784
C          1.75774        0.45879        1.11960
F          2.51312        0.23606        0.00626
F          2.64247        0.55531        2.14788
F          1.05172       -0.68488        1.31843
C          0.01538        2.04768        2.10482
C          0.00443        1.24817        3.30600
N         -0.02026        0.60795        4.27165
C         -0.83246        3.18801        2.09527
C         -2.10113        6.04015        1.65533
N         -3.27941        6.76206        1.39327
C         -4.09199        6.74059        0.19180
C         -4.11157        8.08091       -0.53087
C         -3.72576        7.47153        2.53699
O         -4.68057        8.20731        2.68007
C         -2.75868        7.08045        3.56947
C         -1.75747        6.25674        2.93549
C         -0.76173        5.92703        3.97249
O          0.28416        5.33179        3.81554
N         -1.33905        6.44231        5.15383
C         -0.71988        6.24542        6.44870
C         -0.58595        4.76794        6.80572
C         -2.49792        7.16330        4.87865
C         -3.31926        7.84741        5.81901
S         -3.01223        9.50403        6.18548
C         -4.50914        9.75547        7.04908
C         -5.16057        8.52921        7.13707
C         -4.41232        7.43123        6.55384
C         -4.80943        6.08927        6.63214
C         -6.04313        5.89466        7.31984
C         -6.56052        4.47579        7.47289
F         -5.71366        3.54197        6.95435
F         -6.74981        4.11965        8.77048
F         -7.74664        4.28810        6.83718
C         -6.82168        6.99118        7.84311
C         -8.08965        6.73980        8.48963
N         -9.11418        6.54569        8.99369
C         -6.40918        8.34724        7.75782
C         -4.81514       11.05035        7.59026
N         -4.71168       12.29157        6.93048
C         -4.38899       12.56074        5.54541
C         -5.62160       12.59359        4.65902
C         -5.11747       13.36058        7.75907
O         -5.19781       14.55033        7.53256
C         -5.47503       12.68395        9.00394
C         -5.25512       11.26741        8.84275
C         -5.63111       10.63739       10.13296
O         -5.57350        9.46129       10.42613
N         -6.08445       11.73153       10.90312
C         -6.62422       11.61722       12.24602
C         -8.06430       12.10484       12.35026
C         -5.95612       12.92658       10.21496
H         -0.45859        2.20853       -6.64474
H         -3.59131        0.97193       -4.79709
H         -2.34185        0.24103       -5.81073
H         -3.90795        2.78021       -6.55288
H         -4.28396        1.14792       -7.14323
H         -2.76055        1.92436       -7.59310
H          3.22255        5.17772       -3.44078
H          2.47194        5.18739       -1.84313
H          1.98630        7.10257       -4.19745
H          2.62688        7.50237       -2.59440
H          0.91688        7.07891       -2.79650
H          1.50559        2.12193       -1.06100
H         -1.45954        3.42421        2.94620
H         -5.11629        6.49418        0.49589
H         -3.77694        5.94473       -0.48553
H         -4.52290        8.87179        0.10503
H         -4.73758        8.01872       -1.42683
H         -3.10580        8.38817       -0.83261
H         -1.29467        6.75275        7.22906
H          0.27556        6.70036        6.40846
H         -1.56966        4.29678        6.89908
H         -0.05323        4.65190        7.75415
H         -0.02766        4.21035        6.04671
H         -4.23310        5.26051        6.23480
H         -7.02210        9.14595        8.15975
H         -3.66071       11.85214        5.15829
H         -3.90501       13.54483        5.49984
H         -6.15961       11.64151        4.69286
H         -5.33274       12.79142        3.62181
H         -6.31185       13.38353        4.97381
H         -5.98173       12.19742       12.91823
H         -6.57703       10.57060       12.56312
H         -8.15621       13.15593       12.05658
H         -8.42449       12.01512       13.38083
H         -8.72515       11.51912       11.70347
H         -6.23949       13.88069       10.64560
