96

C          5.25267       -0.92826        0.71193
S          5.01706       -2.61166        0.92112
C          3.33570       -2.52654        0.49865
C          2.97771       -1.21163        0.26205
C          4.08445       -0.30427        0.36453
N          4.01060        1.02659        0.12081
C          2.75832        1.39317       -0.26612
O          2.56026        2.70131       -0.67535
C          3.73629        3.51447       -0.61672
C          3.61012        4.61172       -1.65566
C          1.64480        0.51945       -0.34018
C          0.28753        1.05954       -0.76050
N         -0.78481        0.04745       -0.76519
N          1.71325       -0.82272       -0.06790
C          2.58426       -3.73680        0.43741
C          1.51021       -3.84623       -0.36154
C          0.76911       -5.05444       -0.42976
O          1.07740       -6.16082        0.32046
C          0.22304       -7.18975        0.02685
C         -0.67078       -6.72861       -0.92312
C         -0.33893       -5.38072       -1.19717
C         -1.00313       -4.50709       -2.10649
N         -1.54263       -3.78978       -2.84844
C          0.32264       -8.47171        0.62504
C          0.86026       -8.59684        1.84827
C          1.01421       -9.86530        2.48010
S          0.91341       -9.94659        4.19953
C          1.18547      -11.63957        4.24140
C          1.35839      -12.13580        2.96621
C          1.30828      -11.11476        1.96297
O          1.51696      -11.28503        0.62712
C          2.52367      -12.25894        0.34656
C          1.96280      -13.67453        0.35667
C          1.04532      -13.93855        1.54028
O          1.61830      -13.45286        2.75561
C          1.21440      -12.33365        5.50603
O          1.66919      -11.71525        6.65114
C          1.59990      -12.58669        7.70792
C          1.08907      -13.78098        7.23130
C          0.84394      -13.62458        5.84710
C          0.28791      -14.63414        5.00744
N         -0.17106      -15.48982        4.37095
C          1.96474      -12.28290        9.04317
C          2.88185      -11.35101        9.34553
C          3.22593      -11.08257       10.70871
S          4.82987      -10.57746       11.10123
C          4.52611      -10.49107       12.80635
C          3.20695      -10.81868       13.05689
C          2.47458      -11.16308       11.86654
N          1.16830      -11.54853       11.86728
C          0.63907      -11.58025       13.11208
O         -0.67464      -11.99298       13.25196
C         -1.32994      -12.36182       12.03232
C         -1.10613      -13.83287       11.71840
C          1.34525      -11.23984       14.28653
C          0.64570      -11.32155       15.63130
N          1.49993      -10.90010       16.75675
N          2.66152      -10.84960       14.30630
C          5.60783      -10.13903       13.66970
C          5.42408       -9.51797       14.84171
H          6.22710       -0.48115        0.84579
H          4.65575        2.96489       -0.84780
H          3.81424        3.94630        0.38709
H          3.52520        4.17449       -2.65660
H          4.48867        5.26289       -1.63330
H          2.71213        5.21281       -1.48766
H          0.36260        1.47831       -1.76915
H         -0.00994        1.85910       -0.07394
H         -0.48930       -0.71255       -1.38132
H         -0.80367       -0.38561        0.15965
H          2.92101       -4.58295        1.03297
H          1.18714       -3.02181       -0.98972
H         -1.48042       -7.30251       -1.35287
H         -0.04445       -9.32719        0.06771
H          1.17419       -7.71234        2.40004
H          3.37467      -12.15552        1.03428
H          2.91773      -12.04054       -0.65288
H          2.80400      -14.37717        0.37405
H          1.40133      -13.86538       -0.56470
H          0.90886      -15.01992        1.65067
H          0.04089      -13.52212        1.37966
H          0.91857      -14.66880        7.82575
H          1.48191      -12.86884        9.81899
H          3.40065      -10.80947        8.55757
H         -1.05800      -11.71855       11.18640
H         -2.40127      -12.20032       12.19422
H         -0.04436      -14.05779       11.57844
H         -1.64428      -14.12055       10.81019
H         -1.45672      -14.45812       12.54606
H          0.33099      -12.35526       15.80835
H         -0.24436      -10.68358       15.61958
H          2.39227      -11.38972       16.64126
H          1.75559       -9.92501       16.59083
H          6.62215      -10.38127       13.35968
H          4.44349       -9.22719       15.20586
H          6.27077       -9.27663       15.47610
