89

C         -7.25920        5.82023        2.64276
C         -6.36435        6.29617        3.54188
C         -6.28109        7.66793        3.91813
N         -6.20839        8.77638        4.25126
C         -5.40244        5.48074        4.20658
N         -4.61974        4.83068        4.76447
C         -8.23371        6.65066        1.85379
C         -8.86514        5.83371        0.91672
C         -9.84695        6.27236        0.02864
C        -10.21060        7.63742        0.06325
C         -9.56555        8.47426        0.98113
C         -8.58373        7.99843        1.88927
S        -10.12071       10.10339        0.84216
C        -11.21150        9.70644       -0.40437
C        -11.17255        8.36736       -0.71532
C         -8.34207        4.46425        0.98434
O         -8.54419        3.62111        0.13657
C         -7.45356        4.40208        2.20027
C         -7.03390        3.26768        2.79564
C         -7.40263        1.93103        2.47479
C         -6.58731        0.83694        2.62718
S         -4.86991        0.68660        3.19081
C         -5.12712       -1.04430        3.08313
C         -4.08213       -1.96260        3.63567
C         -6.34354       -1.43427        2.50573
C         -7.24981       -0.35368        2.30855
C         -8.56710       -0.27024        1.97414
S         -9.01183        1.39419        2.21020
C         -9.60311       -1.26467        1.62278
C        -10.60684       -1.05006        0.65553
C        -11.66228       -2.00855        0.38879
N        -12.63782       -1.66650       -0.49137
C        -12.62128       -0.42652       -1.03457
C        -11.59927        0.45350       -0.80982
N        -10.57886        0.12840       -0.00185
F        -11.62401        1.68131       -1.34572
F        -13.68185       -0.04441       -1.75383
C        -11.73711       -3.26942        1.05528
C        -10.77194       -3.48528        2.07850
C         -9.68773       -2.47645        2.35924
N         -8.89074       -2.85859        3.37264
S         -9.40223       -4.33144        3.89704
N        -10.72054       -4.51940        2.93339
C        -12.79858       -4.27519        0.81201
C        -12.76148       -5.65561        0.79450
S        -11.48096       -6.89778        1.15958
C        -12.74040       -8.09932        0.94033
C        -12.45389       -9.51775        1.32774
C        -13.93936       -7.60662        0.41118
C        -13.99412       -6.18830        0.39194
C        -15.00018       -5.32768        0.09186
S        -14.44315       -3.77434        0.60999
C        -16.33576       -5.55273       -0.35301
C        -17.04310       -4.71172       -1.12252
C        -16.74347       -3.42868       -1.77074
C        -15.67559       -3.13821       -2.55358
C        -15.53276       -1.89583       -3.22717
N        -15.44149       -0.87621       -3.78454
C        -14.69291       -4.12614       -2.87809
N        -13.93292       -4.93545       -3.20414
C        -18.00534       -2.64303       -1.73678
C        -19.06003       -3.53379       -1.51132
C        -18.53495       -4.87378       -1.16808
O        -19.18597       -5.86370       -0.91210
C        -20.39686       -3.16497       -1.57831
C        -20.68766       -1.81562       -1.89435
C        -19.62748       -0.90667       -2.02671
C        -18.27251       -1.29409       -1.91830
S        -20.20227        0.68680       -2.35530
C        -21.82262        0.16816       -2.42125
C        -21.94848       -1.17044       -2.13313
H        -10.31231        5.58069       -0.66908
H         -8.14527        8.71447        2.57182
H        -11.83126       10.47310       -0.85008
H        -11.80010        7.92435       -1.47962
H         -6.39034        3.31477        3.66370
H         -3.10098       -1.48527        3.71107
H         -3.98063       -2.85419        3.00883
H         -4.37962       -2.29004        4.63925
H         -6.58381       -2.47925        2.35589
H        -11.40484       -9.78606        1.17376
H        -13.07028      -10.21144        0.74643
H        -12.69523       -9.66811        2.38724
H        -14.76268       -8.26021        0.14733
H        -16.82349       -6.44820        0.03211
H        -21.18586       -3.89532       -1.42425
H        -17.49368       -0.54566       -2.01697
H        -22.60809        0.87188       -2.66081
H        -22.90426       -1.68006       -2.11686
