99

C         -9.33362       -4.25319        5.59508
C         -9.37161       -4.35092        6.94412
C         -9.36154       -5.60535        7.61714
N         -9.34507       -6.63241        8.15694
C         -9.33279       -3.20146        7.78609
N         -9.31448       -2.25729        8.45922
C         -9.23630       -5.37763        4.61473
C         -8.70695       -4.86621        3.42715
C         -8.55457       -5.59196        2.25467
C         -8.94898       -6.94588        2.27768
C         -9.45230       -7.48448        3.47397
C         -9.61293       -6.71360        4.65682
S         -9.84015       -9.15837        3.27907
C         -9.38561       -9.14328        1.65355
C         -8.94123       -7.92239        1.22415
Br        -9.48218      -10.65063        0.54582
C         -8.41579       -3.43923        3.57699
O         -7.65679       -2.79513        2.88588
C         -9.16519       -3.01589        4.80100
C         -9.73322       -1.80955        4.96866
C         -9.73315       -0.76933        3.98653
C         -9.76460       -0.82822        2.58679
C         -9.87844        0.44669        2.00478
C        -10.00182        1.41373        2.97023
S         -9.81079        0.88746        4.53096
C        -10.26362        2.64247        2.34098
C        -10.24370        2.47304        0.97695
C         -9.98216        1.06197        0.68137
C         -9.85156        0.46842       -0.52187
C         -9.58846       -0.92397       -0.64708
N         -9.39361       -2.06484       -0.75311
C         -9.96929        1.21273       -1.73347
N        -10.06233        1.82060       -2.70949
C        -10.46473        3.70020        0.30812
C        -10.68162        4.74468        1.21759
S        -10.68894        4.15281        2.85123
C        -10.88204        6.15682        0.92672
C        -10.53068        7.28913        1.68192
C         -9.96005        7.19566        2.99043
N         -9.53170        7.06196        4.05905
C        -10.78458        8.46516        0.94484
C        -11.38733        8.23010       -0.24191
S        -11.64635        6.61806       -0.57124
S        -11.70593        9.61093       -1.15212
C        -10.94381       10.53127        0.03511
C        -10.51460        9.82741        1.10711
C         -9.86109       10.62622        2.07065
C         -9.34192       10.23704        3.34570
N         -8.90633        9.99975        4.39345
C         -9.73027       11.93996        1.59649
S        -10.58633       12.15704        0.09518
C         -8.97163       13.05017        2.14571
C         -9.25822       14.41508        2.05940
C         -8.22187       15.19020        2.62418
C         -7.22344       14.39872        3.14403
S         -7.43809       12.77433        2.92580
C         -6.20368       15.21927        3.66050
C         -6.54813       16.53247        3.44587
C         -7.85737       16.59381        2.80186
C         -8.54572       17.69403        2.44112
C         -9.79498       17.60471        1.77019
N        -10.80743       17.52520        1.21201
C         -8.04832       18.99694        2.71238
N         -7.60814       20.04618        2.94913
C         -5.51664       17.40670        3.83423
C         -4.44893       16.71342        4.40355
S         -4.72280       14.98897        4.36999
C         -3.20302       17.18235        4.89147
C         -2.97584       18.34230        5.52199
C         -3.75740       19.49230        6.01900
C         -5.01931       19.50718        6.52188
C         -5.65820       20.69105        6.99157
N         -6.19428       21.64693        7.37723
C         -5.82179       18.34356        6.70858
N         -6.53420       17.44467        6.88739
C         -2.78926       20.63825        6.12458
C         -1.49544       20.14841        5.92995
C         -1.52447       18.72335        5.59408
O         -0.55219       18.03300        5.36621
C         -0.33793       20.91297        6.03499
C         -0.48109       22.26932        6.39528
C         -1.77391       22.78140        6.57540
C         -2.94040       21.98954        6.41655
S         -1.72613       24.45040        7.02001
C         -0.03945       24.47435        6.99250
C          0.51612       23.27633        6.63112
Br         0.96906       25.99403        7.41762
H         -8.17838       -5.11835        1.35126
H        -10.04323       -7.18102        5.53601
H         -8.61626       -7.71775        0.21055
H        -10.32632       -1.60180        5.85737
H         -9.73640       -1.75937        2.03732
H        -10.44689        3.84848       -0.76569
H        -10.15236       14.79880        1.58346
H         -5.51962       18.48214        3.72216
H         -2.34618       16.54861        4.64771
H          0.63927       20.46733        5.86796
H         -3.90136       22.46866        6.55565
H          1.58291       23.10433        6.55228
