101

C         -5.98469        0.48862       -5.35352
C         -5.70127       -0.23692       -6.55553
F         -5.65479        0.38314       -7.75821
C         -5.41295       -1.60602       -6.51924
F         -5.05949       -2.31270       -7.62089
C         -5.48392       -2.27055       -5.33529
C         -5.74890       -1.58017       -4.17339
C         -5.93570       -0.17969       -4.08856
C         -6.00388        0.42984       -2.74361
C         -5.78717       -0.45346       -1.55714
C         -5.84420       -1.79043       -1.89017
C         -5.80845       -2.34579       -3.08621
C         -5.97628       -2.69561       -0.82775
O         -7.09794       -3.11224       -0.58675
C         -5.35641       -2.16570        0.22792
C         -5.62676       -0.59199        0.00170
C         -5.79986        0.20774        1.11494
C         -6.18968       -0.61774        2.19200
N         -6.49254       -1.38577        2.99344
C         -5.98731        1.56762        1.59964
N         -6.17984        2.52905        2.22638
C         -4.85101       -3.10179        1.18336
C         -4.83274       -4.72159        1.14333
C         -4.88683       -5.59189        2.29734
C         -5.00774       -7.00511        2.01756
C         -4.98724       -7.34292        0.68815
S         -4.85248       -5.85588       -0.19362
C         -5.17914       -8.84550        0.58136
C         -5.35664       -9.36563        1.84208
C         -5.22770       -8.26518        2.83627
C         -5.31760       -8.40217        4.18136
C         -5.53994       -9.69355        4.80035
N         -5.71818      -10.73427        5.27825
C         -5.17003       -7.28315        5.07011
N         -5.05704       -6.40369        5.81260
C         -5.62568      -10.75861        1.91857
C         -5.65294      -11.35681        0.66498
S         -5.31666      -10.13994       -0.51554
C         -5.90638      -12.80273        0.41372
C         -5.89397      -13.23143       -0.92760
C         -6.08926      -14.55050       -1.25399
C         -6.32473      -15.47462       -0.25010
C         -6.36699      -15.08461        1.08961
C         -6.15184      -13.78340        1.43065
N         -6.21972      -13.57394        2.76202
Se        -6.58560      -15.07535        3.68888
N         -6.58499      -15.91730        2.12709
C         -6.55180      -16.81141       -0.62953
C         -7.35135      -17.61402        0.12789
C         -7.52146      -18.74744       -0.50301
C         -6.81380      -18.88330       -1.64932
S         -5.96828      -17.53158       -2.06900
C         -7.08045      -20.17250       -2.16389
C         -7.96093      -20.75688       -1.33132
C         -8.21879      -19.92675       -0.15291
C         -8.42557      -20.15876        1.17269
C         -7.96613      -21.31135        1.82394
N         -7.64650      -22.14614        2.54908
C         -8.73541      -19.22911        2.22847
N         -8.96840      -18.56689        3.14846
C         -8.47003      -21.94037       -1.77825
C         -7.76412      -22.44141       -2.92250
S         -6.72296      -21.16970       -3.44923
C         -7.82118      -23.89638       -3.46468
C         -7.68323      -24.43680       -4.75390
C         -7.72463      -25.84805       -5.09670
O         -7.79854      -26.75349       -4.28688
C         -7.52942      -26.07825       -6.53076
C         -7.74204      -27.33463       -7.12418
C         -7.42240      -27.61579       -8.44182
C         -6.71027      -26.64105       -9.17297
C         -6.23271      -27.10964      -10.47577
C         -6.56681      -28.40874      -10.99591
C         -7.38004      -29.26819      -10.26888
C         -7.78283      -28.88490       -8.99569
F         -7.75901      -30.48083      -10.78129
F         -6.13336      -28.83662      -12.21995
C         -6.56159      -25.26937       -8.56178
C         -7.11053      -24.92049       -7.18816
C         -7.51350      -23.77261       -6.07369
C         -8.18996      -22.56471       -6.18572
C         -9.41786      -22.41091       -5.32279
N        -10.34693      -22.37825       -4.61504
C         -8.02255      -21.55739       -7.19574
N         -7.92648      -20.71820       -7.99506
H         -6.17821        1.54961       -5.43864
H         -5.27338       -3.33908       -5.29339
H         -6.15024        1.51577       -2.70493
H         -5.76479       -3.42547       -3.13228
H         -4.46697       -2.68050        2.09957
H         -4.91802       -5.23062        3.31140
H         -5.78760      -11.33566        2.81704
H         -5.71378      -12.56439       -1.75097
H         -6.07555      -14.83820       -2.30062
H         -7.84124      -17.39362        1.04601
H         -9.29487      -22.30837       -1.19519
H         -7.93966      -24.64557       -2.67851
H         -8.17589      -28.12576       -6.53727
H         -5.61492      -26.51523      -11.13348
H         -8.39823      -29.59400       -8.44843
H         -6.04795      -24.55349       -9.19793
