130

C          4.01289        6.56821       -7.90294
C          3.72013        6.12379       -6.66083
C          4.14015        6.82446       -5.49331
N          4.45410        7.43177       -4.55679
C          3.05467        4.87717       -6.45871
N          2.56755        3.83907       -6.28737
C          4.98980        7.61639       -8.25160
C          5.62661        7.20203       -9.43218
C          6.66633        7.90620      -10.00517
C          7.00285        9.14444       -9.44118
C          6.26185        9.65205       -8.33068
C          5.27204        8.86141       -7.71708
C          6.52037       10.95447       -7.87933
C          7.51869       11.72890       -8.47229
C          8.28752       11.20461       -9.50773
C          8.02970        9.92171       -9.99167
C          4.88776        6.05934      -10.03028
O          5.15991        5.45326      -11.04266
C          3.66282        5.92830       -9.17260
C          2.47075        5.71856       -9.76867
C          1.19501        6.11442       -9.22778
S          1.08228        7.52096       -8.24206
C         -0.56023        7.27121       -7.85690
C         -1.09775        6.39040       -8.77176
C         -0.09567        5.65462       -9.49451
S         -0.41474        4.32004      -10.61145
C         -2.20739        4.10360      -10.60678
C         -2.91656        5.34414      -11.08620
O         -3.49413        5.38014      -12.17592
C         -2.90290        6.55620      -10.17624
O         -2.44452        6.25205       -8.86326
C         -1.17850        8.03369       -6.82802
C         -0.48835        8.37903       -5.73568
C         -1.02158        9.14378       -4.63715
C         -0.40249       10.31676       -4.35484
C         -0.67953       10.97547       -3.09804
C         -0.05188       12.01650       -2.48292
C          0.95541       13.05724       -2.98236
C          2.41113       12.58696       -2.71603
N          3.45219       13.53895       -3.11393
C          0.70757       13.47078       -4.47155
N          1.62521       14.47842       -5.02249
C         -0.40757       11.81018       -1.06665
C          0.24289       12.17174        0.05082
C         -0.04833       11.48789        1.38391
C         -1.31540       10.64463        1.40981
C         -2.00040       10.33582        0.29893
C         -1.44913       10.79437       -0.94316
C         -1.60894       10.29354       -2.16864
C         -2.40014        9.16951       -2.59733
C         -2.09754        8.61815       -3.78394
C         -0.09415       12.48815        2.49059
C          0.74060       12.43460        3.53848
C          0.59406       13.37179        4.58635
S          1.44191       14.85355        4.48182
C          0.84366       15.39529        5.99163
C         -0.05562       14.48483        6.52268
C         -0.14900       13.28583        5.75094
S         -1.09623       11.84700        6.17342
C         -1.29209       12.02585        7.96114
C         -2.31085       13.09527        8.26978
O         -3.30773       12.85756        8.95711
C         -2.06537       14.47535        7.69652
O         -0.67975       14.77419        7.69569
C          1.29038       16.65318        6.47742
C          1.44114       16.85898        7.79250
C          1.88389       18.12223        8.31822
C          2.95217       18.29769        9.10919
C          3.42957       19.52120        9.77558
C          3.23612       20.79750        9.34588
C          3.80686       21.90682       10.00506
N          4.27443       22.82079       10.55148
C          2.50172       21.12752        8.17139
N          1.90083       21.39228        7.21468
C          4.30880       19.07632       10.89685
C          4.56223       17.70633       10.73696
C          3.80909       17.16306        9.60143
O          3.88174       16.02055        9.19917
C          5.36207       16.96669       11.59455
C          5.92308       17.61671       12.69563
C          5.65578       18.99882       12.90614
C          4.84276       19.71668       11.99958
C          6.20828       19.62819       14.03109
C          7.00908       18.91849       14.92865
C          7.27139       17.56808       14.71602
C          6.73131       16.91956       13.60599
H          7.15136        7.53196      -10.90216
H          4.71090        9.25252       -6.87197
H          5.93476       11.38830       -7.07072
H          7.69851       12.74260       -8.12231
H          9.07975       11.80178       -9.95234
H          8.63142        9.54019      -10.81415
H          2.46103        5.37133      -10.80216
H         -2.59952        3.79411       -9.63268
H         -2.43842        3.29678      -11.31056
H         -3.93577        6.90827      -10.08163
H         -2.31771        7.35857      -10.64578
H         -2.22628        8.30256       -6.92814
H          0.54983        8.07992       -5.58290
H          0.43346       10.64762       -4.95626
H          0.78650       13.97320       -2.39445
H          2.58898       11.63500       -3.22612
H          2.55619       12.41468       -1.64640
H          3.27809       13.79496       -4.09664
H          4.36208       13.08374       -3.09171
H         -0.31601       13.85048       -4.57637
H          0.80392       12.61098       -5.13174
H          1.61109       15.30942       -4.42866
H          1.30448       14.77014       -5.94514
H          1.10874       12.82258        0.00995
H          0.78557       10.79179        1.56042
H         -1.63827       10.23959        2.36514
H         -2.87949        9.70237        0.32120
H         -3.16799        8.75417       -1.95658
H         -2.61541        7.72248       -4.11418
H         -0.86615       13.25259        2.42967
H          1.50827       11.67094        3.62853
H         -0.34234       12.25130        8.45628
H         -1.65566       11.07533        8.36327
H         -2.54539       15.20404        8.35887
H         -2.52867       14.57309        6.70746
H          1.55252       17.42831        5.76087
H          1.25228       16.07140        8.51973
H          1.22268       18.93807        8.04779
H          5.51926       15.90571       11.41367
H          4.64004       20.76258       12.20782
H          6.02000       20.68309       14.22205
H          7.42889       19.42269       15.79559
H          7.89518       17.01806       15.41636
H          6.94501       15.86214       13.46045
