98

C        -22.44115        4.60405        7.60294
C        -23.78833        4.53626        7.95455
F        -24.62132        5.50413        7.54839
C        -24.26742        3.48360        8.72086
F        -25.56361        3.42466        9.05570
C        -23.40796        2.48411        9.15807
C        -22.04545        2.54195        8.83513
C        -21.54425        3.61207        8.03394
C        -20.16991        3.66185        7.69429
C        -19.30059        2.68713        8.17528
C        -19.83508        1.65871        8.96289
C        -21.17463        1.55599        9.29846
C        -18.79558        0.69401        9.33950
O        -18.90668       -0.16390       10.18953
C        -17.59599        1.05626        8.51792
C        -17.83234        2.43479        8.01965
C        -16.89237        3.34936        7.67351
C        -15.49949        3.05322        7.67862
N        -14.35787        2.82429        7.68787
C        -17.21432        4.70813        7.37492
N        -17.47834        5.81727        7.16521
C        -16.64952        0.15792        8.19781
C        -16.62964       -1.23953        8.61789
C        -16.61055       -2.29494        7.78855
C        -16.56672       -3.68358        8.19278
C        -16.37725       -4.53792        7.17313
C        -16.24420       -3.87790        5.88566
S        -16.62910       -2.16195        6.05209
C        -15.76166       -4.40645        4.74590
C        -15.24643       -5.74971        4.53788
C        -14.34395       -5.80924        3.54248
C        -14.10730       -4.51352        2.93698
S        -15.41817       -3.43146        3.31755
C        -12.96848       -4.15903        2.32499
C        -12.65634       -2.80712        2.00120
S        -11.91334       -1.80985        3.18972
C        -11.77939       -0.44969        2.12642
C        -12.24615       -0.79971        0.86666
C        -12.81736       -2.10598        0.82877
O        -13.41634       -2.66015       -0.24799
S        -12.13159        0.16790       -0.61008
C        -11.20723        0.74397        2.67307
C        -11.54139        1.96566        2.22773
C        -11.02941        3.14252        2.83834
S        -11.90951        3.82006        4.13389
C        -10.87054        5.18318        4.30659
C         -9.81675        5.06605        3.40971
C         -9.92393        3.92094        2.56056
O         -9.05322        3.60221        1.57827
S         -8.45188        6.18508        3.29581
C        -11.07803        6.15361        5.33982
C        -12.24927        6.64355        5.78375
C        -13.58641        6.32627        5.32682
C        -14.49763        7.15919        4.80564
C        -15.62578        6.55799        4.01035
O        -16.03831        5.41665        4.03559
C        -16.07419        7.63069        3.09952
C        -17.03523        7.52066        2.10577
C        -17.27685        8.63599        1.29103
C        -16.50012        9.82118        1.46814
C        -16.72795       10.92225        0.62960
C        -17.71524       10.86499       -0.34874
C        -18.48290        9.72061       -0.50843
C        -18.26889        8.60688        0.29857
F        -19.44001        9.67783       -1.44552
F        -17.92099       11.93131       -1.13377
C        -15.52797        9.88948        2.48607
C        -15.34819        8.80818        3.33718
C        -14.53177        8.60363        4.56729
C        -14.22212        9.57869        5.45546
C        -13.84711        9.28995        6.80265
N        -13.56893        9.07636        7.90591
C        -14.39307       10.96190        5.17288
N        -14.52456       12.09025        4.93015
H        -22.10698        5.44680        7.00342
H        -23.81378        1.67252        9.75652
H        -19.82431        4.46568        7.04947
H        -21.51741        0.71812        9.90004
H        -15.85409        0.41529        7.50138
H        -16.61213       -1.40939        9.69271
H        -16.65647       -3.99046        9.22620
H        -16.28526       -5.60749        7.30105
H        -15.50852       -6.59377        5.15955
H        -13.78491       -6.69401        3.27172
H        -12.17488       -4.88522        2.18398
H        -13.51596       -1.97719       -0.93628
H        -11.07924        0.92326       -0.25317
H        -10.53198        0.64021        3.52165
H        -12.28495        2.10576        1.45195
H         -8.38523        4.30594        1.49686
H         -7.47490        5.30778        3.57648
H        -10.17555        6.54716        5.80845
H        -12.17607        7.34109        6.61160
H        -13.82826        5.26419        5.32911
H        -17.57849        6.58797        1.97785
H        -16.15309       11.83948        0.73103
H        -18.89004        7.72814        0.14418
H        -14.94090       10.79727        2.59179
