85

C         -1.40745      -21.28032       -1.21954
O         -1.36334      -22.39415       -0.39079
C         -0.58527      -22.00153        0.62706
C         -0.42146      -22.05243        2.09979
C          0.07014      -20.57584        1.96981
C         -0.38229      -20.67389        0.58429
C         -0.85094      -20.16257       -0.59676
C         -0.89993      -18.82739       -1.07718
C         -0.48999      -17.74926       -0.38627
C         -0.53936      -16.38631       -0.90764
N         -0.60463      -16.22516       -2.24029
C         -0.63445      -14.95959       -2.68135
C         -0.63391      -13.86760       -1.84831
C         -0.57112      -14.13409       -0.49495
N         -0.50603      -15.38996       -0.00650
C         -0.62063      -13.02299        0.47128
C         -0.26561      -13.13233        1.76018
N         -0.34562      -12.15231        2.73181
C          0.05300      -12.23279        4.03980
S          1.28639      -13.34179        4.55324
C          1.14005      -12.86648        6.15747
N          1.92306      -13.51789        7.15452
O          1.30143      -14.01989        8.09896
O          3.15253      -13.49333        7.01690
C          0.21484      -11.87699        6.35986
C         -0.39670      -11.46901        5.12443
C         -1.38694      -10.42397        5.01670
C         -1.90057       -9.70674        6.03216
C         -2.90273       -8.67335        5.83479
C         -4.15407       -8.71435        6.31713
C         -5.17420       -7.71907        6.08817
C         -6.38800       -8.07224        6.54278
C         -6.41542       -9.37796        7.17969
S         -4.77476      -10.03306        7.26339
C         -7.48774      -10.06244        7.62228
C         -8.88698       -9.68156        7.55948
C         -9.72984      -10.64345        7.97363
C         -9.06303      -11.85681        8.40222
S         -7.33829      -11.65945        8.34664
C         -9.67220      -12.99509        8.77457
C         -8.99584      -14.23663        9.15871
C         -9.54698      -15.40995        9.51107
C         -8.93790      -16.74241        9.83144
C         -7.62112      -17.08470        9.86625
C         -7.16787      -18.41975       10.09962
N         -6.78978      -19.49787       10.28049
C         -6.55812      -16.16117        9.65080
N         -5.67199      -15.43190        9.47921
C        -10.08727      -17.68774       10.03689
C        -11.27462      -17.00894        9.76689
C        -11.03503      -15.58531        9.56700
O        -11.91684      -14.75179        9.53913
C        -12.53808      -17.58663        9.75204
C        -12.63820      -18.93625       10.13265
C        -11.47042      -19.61473       10.51036
C        -10.18347      -19.01323       10.45325
S        -11.83953      -21.21549       11.04914
C        -13.48938      -21.00217       10.76044
C        -13.79610      -19.77574       10.23786
Br       -14.77845      -22.30709       11.13743
H         -1.94223      -21.43467       -2.14691
H          0.32981      -22.77063        2.44290
H         -1.35298      -22.25301        2.63777
H          1.15303      -20.42854        2.06379
H         -0.40862      -19.78122        2.54887
H         -1.31376      -18.68224       -2.07395
H         -0.10083      -17.83283        0.62185
H         -0.66167      -14.84691       -3.76116
H         -0.67370      -12.86251       -2.24500
H         -0.97132      -12.07132        0.08684
H          0.10789      -14.08807        2.12538
H         -0.89451      -11.34957        2.44056
H         -0.00252      -11.46890        7.33949
H         -1.76666      -10.20307        4.02236
H         -1.61931       -9.89254        7.06626
H         -2.58599       -7.82828        5.22860
H         -4.96892       -6.78792        5.57828
H         -7.26522       -7.44972        6.43592
H         -9.22294       -8.72116        7.19356
H        -10.80781      -10.54231        7.97648
H        -10.75864      -12.99599        8.75923
H         -7.91646      -14.16396        9.10510
H        -13.41303      -16.99916        9.48725
H         -9.33213      -19.60437       10.76801
H        -14.79908      -19.45882        9.97784
