118

C          2.26466        1.31668        0.03666
S          3.15204       -0.01741       -0.55761
C          2.05239       -0.29754       -1.88078
C          1.03212        0.64414       -1.84545
C          1.16472        1.56428       -0.74021
C          0.29785        2.62502       -0.46998
C         -0.75587        2.70467       -1.40405
O         -1.72926        3.67884       -1.36508
C         -2.02021        4.18912       -0.06861
C         -0.89022        1.81102       -2.51226
C         -0.00517        0.74416       -2.78640
C          2.37483       -1.38356       -2.75112
C          1.43063       -2.12043       -3.34595
C          1.80785       -3.22475       -4.24646
N          2.90816       -3.30378       -4.94928
C          2.73216       -4.44675       -5.66883
C          1.45741       -5.04349       -5.35430
C          1.30408       -6.29195       -6.13630
O          0.38753       -7.08589       -6.14648
C          2.56557       -6.33234       -6.90971
C          3.36743       -5.18336       -6.57257
N          4.53132       -5.20612       -7.27393
C          4.41982       -6.29660       -7.97991
C          3.18467       -7.08950       -7.80916
C          0.81390       -4.32428       -4.45088
C         -0.43274       -4.52760       -3.78269
C         -1.60168       -4.65070       -4.42280
C         -2.86393       -4.83131       -3.72208
C         -3.79988       -3.86676       -3.87400
C         -5.07781       -3.94682       -3.18792
C         -6.12247       -3.07745       -3.09082
C         -6.29560       -1.66638       -3.66015
C         -5.78465       -0.60187       -2.63551
N         -5.84928        0.78861       -3.10960
C         -5.64649       -1.44920       -5.05664
N         -6.20649       -2.27937       -6.12527
C         -7.11950       -3.79265       -2.25977
C         -8.37280       -3.49276       -1.86916
C         -9.19650       -4.41817       -0.95504
C         -8.45561       -5.67228       -0.51390
C         -7.21601       -5.98084       -0.92627
C         -6.55697       -5.07372       -1.82187
C         -5.34040       -5.16118       -2.37861
C         -4.32843       -6.17819       -2.24311
C         -3.14693       -6.00215       -2.87957
C        -10.50686       -4.80477       -1.59708
C        -11.64992       -5.03673       -0.92181
C        -12.88129       -5.37632       -1.67235
N        -12.94680       -5.47332       -2.98443
C        -14.25513       -5.71200       -3.21491
C        -14.98557       -5.75191       -1.98429
C        -16.42238       -5.97288       -2.26760
O        -17.35099       -6.03187       -1.49714
C        -16.43034       -6.09598       -3.74097
C        -15.08634       -5.92318       -4.24242
N        -15.07619       -6.02429       -5.58835
C        -16.33095       -6.25459       -5.87340
C        -17.27765       -6.31434       -4.73860
C        -14.17540       -5.58747       -0.94450
C        -14.53099       -5.50543        0.43415
C        -14.08790       -6.30161        1.42037
C        -14.50841       -6.12035        2.78146
S        -14.63115       -7.52718        3.80069
C        -15.13683       -6.64470        5.19370
C        -15.19678       -5.30118        4.89228
C        -14.81744       -4.99209        3.52832
C        -14.72931       -3.67160        3.04583
C        -15.04686       -2.69670        4.01494
O        -14.93282       -1.39037        3.58483
C        -14.60602       -0.45913        4.61695
C        -15.46884       -3.02823        5.33617
C        -15.54516       -4.33823        5.84158
C        -15.34082       -7.32676        6.43050
C        -16.54998       -7.76653        6.79563
H          2.60741        1.84699        0.91444
H          0.44321        3.31592        0.34615
H         -2.89060        4.84567       -0.15542
H         -1.19300        4.79055        0.32050
H         -2.27670        3.37693        0.62025
H         -1.72980        1.96602       -3.19118
H         -0.14817        0.11695       -3.65431
H          3.42567       -1.63763       -2.89107
H          0.37253       -1.95141       -3.19918
H          5.18609       -6.65109       -8.68600
H          2.89983       -8.00776       -8.28159
H         -0.39921       -4.54802       -2.69583
H         -1.66238       -4.56987       -5.50847
H         -3.56525       -3.04133       -4.51996
H         -7.36893       -1.48082       -3.79944
H         -4.75426       -0.81175       -2.32409
H         -6.40566       -0.65703       -1.73306
H         -5.10541        0.96021       -3.78785
H         -5.64582        1.42440       -2.33678
H         -4.57064       -1.59672       -5.02090
H         -5.73567       -0.40928       -5.38173
H         -6.44956       -3.20259       -5.76198
H         -7.08946       -1.86670       -6.42676
H         -8.84769       -2.56691       -2.17602
H         -9.41006       -3.84122       -0.04514
H         -8.96006       -6.33618        0.18387
H         -6.71482       -6.88128       -0.58660
H         -4.50641       -7.05534       -1.64238
H         -2.36538       -6.74431       -2.78865
H        -10.49700       -4.91180       -2.68208
H        -11.69863       -4.96843        0.15814
H        -16.71199       -6.40540       -6.89350
H        -18.33441       -6.48806       -4.74773
H        -15.29858       -4.75988        0.63547
H        -13.42365       -7.13399        1.19526
H        -14.41417       -3.38368        2.05278
H        -13.64630       -0.71966        5.07766
H        -15.39428       -0.38890        5.37218
H        -14.51949        0.53674        4.17551
H        -15.75911       -2.24273        6.02601
H        -15.83903       -4.53058        6.86454
H        -14.48832       -7.45550        7.09292
H        -17.42863       -7.64876        6.17243
H        -16.68188       -8.27067        7.75218
