126

C          6.68489        6.14691        7.96084
S          5.46977        6.32025        6.79141
C          6.49206        5.76540        5.50800
C          7.75065        5.42790        6.00553
C          7.86748        5.68159        7.42946
C          9.14439        5.50104        8.20393
N          9.64033        6.84212        8.51099
C         10.18786        4.68412        7.42300
C         10.25157        5.07720        5.93964
C          8.90695        4.86265        5.21446
N          8.63914        3.43763        5.01856
C          6.02642        5.74932        4.15092
C          4.74041        5.52568        3.84151
C          4.24272        5.58500        2.44867
N          4.99664        5.79346        1.39757
C          4.12596        5.69456        0.35862
C          2.80325        5.40719        0.84307
C          1.88512        5.27748       -0.32182
O          0.69916        5.02831       -0.33740
C          2.79438        5.52268       -1.47222
C          4.12507        5.76371       -0.96660
N          4.97986        5.98390       -2.00008
C          4.20589        5.88315       -3.04421
C          2.77262        5.58209       -2.79615
C          2.77693        5.36256        2.16714
C          1.66736        5.08567        3.03511
C          1.48607        5.57330        4.27057
C          0.34549        5.23288        5.10519
C          0.57816        4.63408        6.30382
C         -0.53943        4.26574        7.15288
C         -0.58855        3.67267        8.37781
C          0.54843        3.27440        9.31072
C          0.49298        3.99366       10.69008
N          0.64114        5.44868       10.60322
C          0.68959        1.73879        9.51563
N          1.79787        1.40519       10.42264
C         -2.02148        3.55486        8.66503
C         -2.68145        2.97041        9.66974
C         -4.20488        2.90044        9.72668
C         -4.88970        3.73822        8.64864
C         -4.22903        4.31864        7.62824
C         -2.80079        4.17645        7.59476
C         -1.91016        4.58269        6.68147
C         -2.11434        5.25424        5.42426
C         -1.03295        5.54773        4.68002
C         -4.71620        1.46883        9.64386
C         -3.98062        0.35552        9.48394
C         -4.63079       -0.96707        9.36787
N         -5.81710       -1.26717        9.83870
C         -5.95525       -2.58627        9.53326
C         -4.78859       -3.06037        8.84281
C         -4.96495       -4.49156        8.50249
O         -4.21988       -5.22914        7.90050
C         -6.29676       -4.78356        9.08681
C         -6.81532       -3.58160        9.68946
N         -8.03314       -3.83381       10.23925
C         -8.21517       -5.09470        9.97505
C         -7.14314       -5.78796        9.22726
C         -3.88530       -2.09611        8.71692
C         -2.59996       -2.15112        8.10330
C         -1.65867       -3.01889        8.50503
C         -0.41050       -3.14696        7.83090
S          0.96861       -3.49523        8.76781
C          2.06255       -3.27930        7.45569
C          1.35664       -3.06015        6.27134
C         -0.08733       -3.14646        6.48082
C         -1.06328       -3.15859        5.32413
N         -2.00922       -4.26188        5.47821
C         -0.36280       -3.34628        3.97270
C          0.84015       -2.41409        3.86663
C          1.92777       -2.82470        4.88174
N          2.92850       -1.75968        4.93632
C          3.47324       -3.38282        7.68164
C          4.04093       -3.09053        8.86216
H          6.49834        6.42877        8.98842
H          8.93235        4.98942        9.15012
H          9.74280        7.37600        7.64942
H         10.56593        6.78267        8.92832
H          9.94296        3.61769        7.50686
H         11.17968        4.79866        7.87815
H         11.04549        4.50487        5.44395
H         10.54011        6.13293        5.85674
H          8.96568        5.34316        4.23169
H          8.45791        2.99173        5.91538
H          9.46143        2.98314        4.62773
H          6.75373        5.92069        3.36085
H          4.03020        5.28479        4.61564
H          4.55441        6.00432       -4.08119
H          1.98842        5.45965       -3.51051
H          0.90025        4.43617        2.60808
H          2.17507        6.28309        4.72212
H          1.58054        4.39845        6.64125
H          1.48633        3.59288        8.83400
H          1.30291        3.64105       11.33777
H         -0.43660        3.76138       11.21784
H          1.59047        5.66415       10.30072
H          0.55548        5.83727       11.54198
H          0.87491        1.24803        8.55317
H         -0.22461        1.30317        9.93086
H          2.66510        1.81835       10.08036
H          1.94601        0.39751       10.45239
H         -2.15074        2.47594       10.47896
H         -4.50679        3.32020       10.69518
H         -5.96572        3.86970        8.72381
H         -4.74292        4.90013        6.87545
H         -3.11272        5.51480        5.09537
H         -1.15762        6.05714        3.72805
H         -5.80042        1.37927        9.70635
H         -2.89925        0.37469        9.42646
H         -9.10937       -5.66210       10.27325
H         -7.09865       -6.81333        8.91215
H         -2.44260       -1.49245        7.25340
H         -1.81673       -3.63649        9.38768
H         -1.60529       -2.20680        5.30043
H         -1.57181       -5.00710        6.02557
H         -2.79634       -3.97497        6.05966
H         -1.07095       -3.13976        3.16058
H         -0.02171       -4.38242        3.84434
H          0.50720       -1.38014        4.03881
H          1.24468       -2.44853        2.84768
H          2.40541       -3.74958        4.53637
H          2.49753       -0.92162        5.32519
H          3.21091       -1.51254        3.98895
H          4.10779       -3.69147        6.85380
H          3.46870       -2.74559        9.71803
H          5.11106       -3.18277        9.00789
