82

C         -3.39616       -4.40846        4.83350
C         -3.96687       -5.59166        5.16610
C         -3.88354       -6.12961        6.48425
N         -3.77226       -6.54912        7.55742
C         -4.80051       -6.28877        4.24588
N         -5.51814       -6.81147        3.49397
C         -2.84835       -3.40226        5.77236
C         -3.06852       -2.12727        5.21518
C         -2.67696       -0.95496        5.83894
C         -1.97386       -1.07139        7.04109
C         -1.67818       -2.34407        7.57816
C         -2.13471       -3.51565        6.95327
Cl        -0.68871       -2.54263        8.98321
Cl        -1.44221        0.38668        7.80031
C         -3.58466       -2.26084        3.83235
O         -3.91117       -1.36871        3.08166
C         -3.48488       -3.72994        3.53872
C         -3.13347       -4.11375        2.30009
C         -2.51952       -5.35481        1.93533
C         -2.96240       -6.28671        0.86621
N         -2.24315       -7.36022        0.68874
C         -1.24581       -7.21355        1.59788
C         -1.38256       -5.95805        2.29654
C         -0.17287       -5.75779        3.15746
S          0.37002       -4.32109        3.79961
C          0.49897       -7.09736        3.06440
C         -0.17910       -7.87154        2.04034
N          0.45241       -9.05226        1.82019
C          1.41957       -9.02671        2.69413
C          1.49860       -7.82250        3.56222
C          2.41304       -7.54835        4.59948
S          3.99875       -8.18542        4.50815
C          4.48077       -7.56587        6.03894
C          3.47338       -6.75686        6.55391
C          2.26762       -6.84981        5.78471
O          1.05926       -6.36906        6.14594
O          3.64675       -6.11260        7.74151
C          3.25385       -4.73849        7.74097
C          5.79073       -7.82198        6.50176
C          6.70435       -6.83875        7.13095
N          7.93644       -7.21995        7.31263
C          7.93399       -8.48792        6.82365
C          6.60675       -8.87499        6.37222
C          6.69438      -10.28847        5.85156
S          5.49887      -11.36047        5.41996
C          8.16892      -10.54854        5.89122
C          8.81997       -9.43524        6.53599
N         10.16254       -9.62760        6.58301
C         10.31346      -10.76330        5.95910
C          9.07438      -11.42906        5.46784
C          8.95086      -12.63360        4.69352
C          9.52889      -12.88207        3.50492
C          9.31953      -13.99580        2.54059
C          8.99815      -15.27938        2.82198
C          8.95983      -16.30602        1.82839
N          8.94172      -17.12881        1.01345
C          8.74860      -15.73150        4.15005
N          8.55049      -16.07859        5.23832
C          9.72161      -13.46568        1.19814
C         10.38233      -12.24344        1.38420
C         10.37758      -11.86334        2.79615
O         10.94656      -10.89419        3.24821
C         10.88853      -11.46629        0.35324
C         10.70410      -11.92357       -0.94808
C         10.01891      -13.13271       -1.17768
C          9.52511      -13.90373       -0.10515
Cl         9.72643      -13.72263       -2.77689
Cl        11.31004      -10.94116       -2.23148
H         -2.86180        0.01062        5.37656
H         -1.87325       -4.48294        7.37171
H         -3.19952       -3.38934        1.48653
H         -3.85082       -6.03416        0.26755
H          2.16218       -9.83328        2.79821
H          1.08807       -6.01833        7.05044
H          3.66326       -4.27722        8.64647
H          2.16923       -4.62764        7.80856
H          3.64336       -4.19073        6.87634
H          6.33120       -5.83861        7.39531
H         11.28998      -11.24015        5.78412
H          8.22481      -13.32898        5.10994
H         11.38422      -10.52233        0.56482
H          8.97654      -14.81171       -0.33608
