113

C         -1.98226       -7.58748       -0.98693
C         -1.92195       -8.14529        0.29743
C         -2.45518       -7.47096        1.40786
C         -3.11694       -6.25344        1.25358
C         -3.21503       -5.72483       -0.02170
C         -2.60648       -6.35688       -1.14371
C         -2.72515       -5.41045       -2.31282
C         -2.78538       -5.75436       -3.61940
C         -2.76487       -7.11803       -4.04138
N         -2.80190       -8.23193       -4.36850
C         -3.06230       -4.79590       -4.61906
N         -3.29899       -4.00421       -5.45192
C         -3.10798       -4.08937       -1.70119
C         -3.91000       -4.50613       -0.53147
C         -5.26274       -4.44715       -0.42917
C         -6.07620       -3.92501       -1.48809
N         -6.75167       -3.57020       -2.35000
C         -5.96408       -5.09771        0.63315
N         -6.50550       -5.59805        1.52591
C         -2.52089       -2.87957       -1.90065
C         -2.60275       -1.65539       -1.03395
C         -3.56125       -0.64480       -1.20915
C         -4.31865       -0.21479       -2.39362
O         -3.91224       -0.48700       -3.51027
N         -5.24459        0.73490       -1.98531
C         -4.76384        1.30607       -0.83463
O         -5.02959        2.37082       -0.30885
C         -3.72973        0.41517       -0.31418
C         -2.90541        0.62290        0.76980
C         -1.86566       -0.28472        0.89768
C         -1.69703       -1.37858        0.02044
C         -0.37734       -1.98915        0.25303
O          0.21971       -2.66630       -0.56303
S          0.32643       -1.46452        1.77472
C         -0.80297       -0.14349        1.89226
O         -0.72594        0.77928        2.68219
C         -5.95739        1.49192       -2.89315
C         -7.18877        1.18681       -3.35279
C         -7.71477        1.83149       -4.52572
S         -6.71313        2.94548       -5.38021
C         -7.66441        3.10146       -6.78559
C         -8.66655        2.14242       -6.60709
C         -8.90709        1.71492       -5.22410
C        -10.28255        1.04812       -4.99974
C        -10.80062        0.80862       -3.60908
C        -12.10807        0.78708       -3.28468
C        -10.45295       -0.18842       -5.89576
C         -9.92133        0.03882       -7.30321
C         -9.52645        1.47845       -7.61862
C         -7.23248        4.07258       -7.89568
C         -7.57115        3.96269       -9.27971
C         -8.40537        3.09032      -10.15273
O         -9.46104        2.58432       -9.82793
N         -8.03367        3.24208      -11.46366
C         -7.42996        4.45135      -11.59039
O         -7.20408        5.12839      -12.57466
C         -7.13135        4.90230      -10.23444
C         -6.51522        6.08775       -9.93662
C         -6.21689        6.25992       -8.60836
C         -6.45902        5.26770       -7.62667
C         -5.62597        5.68747       -6.46435
O         -4.89163        4.96544       -5.81867
S         -5.41161        7.43084       -6.40298
C         -5.59023        7.48930       -8.12486
O         -5.27661        8.42518       -8.83707
C         -8.51674        2.51984      -12.54148
C         -9.42200        1.53071      -12.46852
C         -9.89585        0.78231      -13.60821
C        -11.17256        0.70601      -14.03384
C        -11.69575       -0.38732      -14.89393
C        -11.10599       -0.90380      -15.99755
C         -9.84298       -0.44090      -16.46508
N         -8.80370       -0.06748      -16.82990
C        -11.72548       -1.89662      -16.80652
N        -12.22389       -2.70984      -17.46452
C        -13.06340       -0.68849      -14.34778
C        -13.43651        0.34705      -13.44083
C        -14.63004        0.27151      -12.73171
C        -15.47446       -0.81881      -12.94818
C        -15.11692       -1.83111      -13.84476
C        -13.90392       -1.77931      -14.53775
C        -12.35201        1.37407      -13.43302
C        -12.50314        2.69968      -13.20141
C        -13.69816        3.26433      -12.67513
N        -14.66454        3.72832      -12.22920
C        -11.52193        3.64048      -13.62085
N        -10.75230        4.42112      -14.01235
H         -1.51954       -8.12643       -1.80854
H         -1.43385       -9.10837        0.44658
H         -2.35503       -7.90639        2.40065
H         -3.53330       -5.74763        2.11854
H         -1.78238       -2.78028       -2.69929
H         -2.99687        1.50167        1.40357
H         -5.40771        2.35641       -3.26489
H         -7.75590        0.37321       -2.91224
H        -10.98179        1.80328       -5.40412
H        -10.08590        0.66055       -2.81537
H        -12.88700        0.95755       -4.02236
H        -12.44911        0.62309       -2.26454
H        -11.51454       -0.46140       -5.96446
H         -9.94015       -1.05846       -5.46836
H         -9.02925       -0.58754       -7.43668
H        -10.64037       -0.31028       -8.05533
H        -10.41342        2.08957       -7.82528
H         -8.86240        1.30748       -8.45538
H         -6.26521        6.81717      -10.70065
H         -8.11935        2.82840      -13.50876
H         -9.86631        1.21686      -11.52657
H         -9.12821        0.11609      -13.99765
H        -14.92895        1.01699      -12.00219
H        -16.41570       -0.88861      -12.40551
H        -15.78444       -2.67882      -13.99064
H        -13.65459       -2.61140      -15.18656
