117

C          5.67477       16.75974       -0.35333
C          5.31340       16.33828       -1.58499
C          5.20298       17.22616       -2.69773
N          5.08270       17.97211       -3.57990
C          5.17491       14.94636       -1.85677
N          5.12550       13.80958       -2.08325
C          6.33365       18.04633       -0.06551
C          7.34371       17.81782        0.88350
C          8.19720       18.82689        1.30210
C          7.92473       20.14113        0.86610
C          6.76636       20.39371        0.07479
C          6.01400       19.33386       -0.44343
C          6.35778       21.71139       -0.16208
C          7.13518       22.78227        0.26835
C          8.34352       22.54264        0.91585
C          8.72791       21.23442        1.23100
C          7.15954       16.45392        1.46395
O          7.82897       15.90950        2.31373
C          5.86412       15.95773        0.85183
C          4.96232       15.32251        1.62978
C          3.50797       15.24819        1.46195
C          2.59815       16.26373        1.35415
N          2.83735       17.68009        1.55959
O          3.96292       18.05890        1.89863
O          1.87231       18.43833        1.39265
C          1.25473       15.77863        1.12904
C          1.29601       14.44427        1.10095
C          2.66742       14.00791        1.30241
C          2.90588       12.70596        1.57237
C          3.81684       12.27645        2.62654
C          3.61413       10.96355        2.82683
C          2.62121       10.48981        1.88550
N          2.26875        9.08908        1.75558
O          1.13805        8.78513        1.35339
O          3.13335        8.26943        2.09643
C          2.14834       11.49051        1.11132
C          1.21524       11.33734        0.00795
C          1.37764       11.84574       -1.22341
C          0.40345       11.67592       -2.26279
S          1.02222       11.53302       -3.87491
C         -0.52399       11.28449       -4.60177
C         -1.48714       11.16115       -3.60928
C         -0.98583       11.60778       -2.30557
C         -1.90409       11.84068       -1.25578
N         -1.58634       12.49065       -0.03289
O         -1.28172       13.68419       -0.11299
O         -1.73082       11.83979        1.01095
C         -3.26649       11.65054       -1.51855
C         -3.71032       11.14514       -2.75175
C         -2.85266       10.80533       -3.82474
N         -3.42722       10.22470       -4.95935
C         -0.60978       11.29840       -6.02752
C         -1.67948       11.82080       -6.66664
C         -1.51484       11.64433       -8.10430
C         -0.16264       11.09430       -8.27233
C          0.34994       10.89036       -7.04527
C          0.52821       10.79040       -9.46655
N          1.09814       10.52641      -10.44239
C         -2.45267       11.93864       -9.02720
C         -2.25571       11.87827      -10.47490
C         -3.37665       12.31929      -11.07474
C         -4.36522       12.60996      -10.04871
C         -3.84457       12.38940       -8.82978
C         -4.61254       12.48999       -7.63937
N         -5.27323       12.58085       -6.69248
C         -3.51620       12.43158      -12.49922
C         -3.87975       13.56980      -13.10674
C         -4.04564       13.64039      -14.54004
C         -5.14785       14.08016      -15.16702
C         -5.49536       14.01811      -16.60408
C         -4.64363       14.11749      -17.64199
C         -5.08093       14.12378      -19.01228
N         -5.43725       14.12051      -20.11518
C         -3.23642       14.28170      -17.47175
N         -2.09431       14.40875      -17.34103
C         -6.98755       13.98621      -16.66632
C         -7.49303       14.28167      -15.39203
C         -6.39953       14.46550      -14.42849
O         -6.52573       14.84415      -13.28263
C         -8.84566       14.32387      -15.09199
C         -9.75745       14.05509      -16.11730
C         -9.28084       13.74927      -17.42269
C         -7.89294       13.70463      -17.68158
C        -10.21274       13.49299      -18.44047
C        -11.58447       13.53087      -18.18202
C        -12.04590       13.81601      -16.90045
C        -11.13838       14.07538      -15.87328
H          8.99465       18.62061        2.01084
H          5.15269       19.53222       -1.07353
H          5.41342       21.91464       -0.66423
H          6.80038       23.80032        0.08565
H          8.97685       23.38017        1.19712
H          9.66057       21.08009        1.76903
H          5.31006       14.94265        2.59048
H          0.35742       16.38329        1.13742
H          0.43672       13.81365        1.20218
H          4.38240       12.91891        3.28104
H          4.03626       10.35357        3.61050
H          0.34155       10.72827        0.23098
H          2.31572       12.34263       -1.47207
H         -4.00112       11.90352       -0.75453
H         -4.78462       11.00496       -2.87452
H         -4.19939        9.59733       -4.75566
H         -2.76150        9.81834       -5.60634
H         -2.52611       12.28088       -6.18147
H          1.33653       10.50903       -6.82201
H         -1.36106       11.59847      -11.00622
H         -5.38064       12.91189      -10.26857
H         -3.32731       11.52680      -13.07299
H         -4.07449       14.47458      -12.53134
H         -3.21518       13.20823      -15.09273
H         -9.17172       14.54651      -14.07957
H         -7.56698       13.43169      -18.67991
H         -9.87975       13.26672      -19.45193
H        -12.29338       13.33727      -18.98352
H        -13.11419       13.83960      -16.69948
H        -11.52129       14.29495      -14.87854
