118

C         -0.26214        0.90270        3.12770
C          0.57683        1.77227        3.73130
C          0.36740        2.22042        5.06589
N          0.15877        2.59563        6.14305
C          1.79000        2.19908        3.10900
N          2.80299        2.51157        2.64644
C         -1.30155        0.09537        3.80112
C         -1.34010       -1.15272        3.15763
C         -2.12681       -2.19867        3.59756
C         -2.97549       -1.96259        4.68581
C         -3.03561       -0.66698        5.28078
C         -2.18182        0.35947        4.83633
C         -3.95818       -0.43178        6.30969
C         -4.78488       -1.45665        6.77167
C         -4.69311       -2.73160        6.22010
C         -3.79677       -2.98319        5.18124
C         -0.54775       -1.10835        1.90835
O         -0.37583       -2.00914        1.11653
C         -0.12086        0.32467        1.79047
C         -0.05895        0.88830        0.57400
C         -0.11314        2.32984        0.26109
C         -0.89624        3.22400        1.02399
C         -0.97893        4.59485        0.73017
C         -0.31927        5.05005       -0.41020
C          0.39718        4.14687       -1.16487
C          0.54511        2.79275       -0.88665
O          0.89926        4.81577       -2.22799
C          0.42211        6.11212       -2.11407
N         -0.26528        6.29097       -0.99051
C          0.65489        7.06170       -3.13967
N          0.71180        8.45032       -3.02428
C          0.46833        9.22862       -1.82642
C         -0.96934        9.72356       -1.74737
C          0.95050        9.05187       -4.27404
O          1.05166       10.22671       -4.56447
C          1.02474        7.89705       -5.19107
C          0.82411        6.70896       -4.41380
C          0.83261        5.55588       -5.32697
O          0.63849        4.39122       -5.04851
N          1.06211        6.16034       -6.58350
C          1.12598        5.36431       -7.79433
C          2.47768        5.43108       -8.48569
C          1.16597        7.56091       -6.47340
C          1.28839        8.46527       -7.59325
C          1.96528        9.62874       -7.53751
C          2.03777       10.62687       -8.59195
C          3.16078       11.05952       -9.21953
N          4.50617       10.64522       -8.88783
O          4.76870       10.34749       -7.71618
O          5.33157       10.65098       -9.81361
C          2.86105       11.92563      -10.34112
C          1.52876       12.02502      -10.46812
C          0.92621       11.26710       -9.36847
C         -0.39495       11.26313       -9.09921
C         -0.96038       11.13800       -7.76102
C         -2.29411       11.09021       -7.89391
C         -2.62919       11.19365       -9.30516
N         -3.98310       10.94825       -9.78711
O         -4.84302       10.73373       -8.91680
O         -4.22027       10.92937      -10.99729
C         -1.52604       11.39029      -10.07029
C         -1.43575       11.38337      -11.52216
C         -2.09022       12.23704      -12.32559
C         -2.10509       12.13090      -13.77447
C         -2.78063       12.93179      -14.61736
C         -2.99950       12.79478      -16.08997
C         -2.12102       12.31852      -16.99122
C         -2.36643       12.35519      -18.39573
N         -2.57637       12.38161      -19.53806
C         -0.84710       11.80475      -16.62150
N          0.19389       11.37289      -16.31084
C         -4.29353       13.49292      -16.36743
C         -4.66527       14.22192      -15.23015
C         -3.67486       14.04966      -14.16165
O         -3.59497       14.73174      -13.16095
C         -5.83420       14.96032      -15.13289
C         -6.69157       14.98376      -16.23608
C         -6.34280       14.26510      -17.41429
C         -5.14548       13.51408      -17.46483
C         -7.21165       14.31470      -18.51549
C         -8.40098       15.04539      -18.45903
C         -8.74403       15.73402      -17.29968
C         -7.89495       15.70368      -16.19361
H         -2.10163       -3.15353        3.08099
H         -2.23920        1.34316        5.29431
H         -4.04556        0.55422        6.76222
H         -5.49857       -1.25967        7.56787
H         -5.32723       -3.53188        6.59301
H         -3.74872       -3.98502        4.75931
H         -0.09217        0.23718       -0.30415
H         -1.49020        2.86894        1.86138
H         -1.56713        5.27003        1.34085
H          1.11906        2.15202       -1.54654
H          1.13553       10.09885       -1.84710
H          0.72662        8.64807       -0.93667
H         -1.21350       10.37382       -2.59483
H         -1.12359       10.29720       -0.82795
H         -1.67717        8.88879       -1.75418
H          0.32304        5.68696       -8.46427
H          0.92212        4.31389       -7.54458
H          2.78999        6.46073       -8.67515
H          2.43550        4.91219       -9.44824
H          3.25234        4.95734       -7.87408
H          0.76183        8.17684       -8.49957
H          2.52543        9.88254       -6.63736
H          3.60568       12.44335      -10.92840
H          1.01353       12.68934      -11.14500
H         -0.42245       11.22773       -6.82702
H         -3.01919       11.05064       -7.09433
H         -0.80116       10.60674      -11.94639
H         -2.71177       13.00651      -11.87145
H         -1.58468       11.25590      -14.15753
H         -6.07006       15.48539      -14.21132
H         -4.92879       12.95296      -18.36862
H         -6.96909       13.78600      -19.43536
H         -9.06100       15.07467      -19.32273
H         -9.67285       16.29790      -17.25591
H         -8.18311       16.24857      -15.29654
