98

C         -1.59127        0.52309        1.89341
C         -1.37871       -0.29237        0.83009
C         -2.37914       -1.17314        0.32519
N         -3.20461       -1.87357       -0.08810
C         -0.08222       -0.51082        0.26896
N          0.95544       -0.78709       -0.17403
C         -2.57362        0.15533        2.94757
C         -1.93944        0.32146        4.19111
C         -2.50143       -0.11528        5.37966
C         -3.77478       -0.70805        5.32659
C         -4.47367       -0.77805        4.08482
C         -3.86478       -0.33949        2.89831
C         -5.76860       -1.31024        4.04931
C         -6.36170       -1.81294        5.20565
C         -5.66612       -1.79024        6.41130
C         -4.38631       -1.23268        6.47550
C         -0.67371        1.07369        4.00842
O          0.10665        1.41058        4.87262
C         -0.63693        1.42418        2.54038
C         -0.14819        2.63691        2.21858
N         -0.35306        3.39663        1.07337
C         -0.26318        2.94933       -0.18956
O          0.00766        1.84305       -0.60311
C         -0.33999        4.09274       -1.08555
C         -0.31858        5.23792       -0.38867
C         -0.08770        4.73947        1.00584
O          0.42854        5.37286        1.90980
C         -0.44572        6.59548       -0.93824
N         -0.40588        7.86123       -0.27211
C         -0.13121        8.20981        1.11122
C         -1.28365        8.95559        1.77973
C         -0.66600        8.93708       -1.16528
O         -0.75286       10.13466       -0.98834
C         -0.85366        8.26953       -2.43654
C         -0.70590        6.85625       -2.24324
C         -0.92461        6.26365       -3.58906
O         -0.89777        5.08565       -3.87752
N         -1.18294        7.37053       -4.42388
C         -1.43486        7.23635       -5.84807
C         -2.68073        6.42386       -6.15618
C         -1.14399        8.55864       -3.70505
C         -1.34411        9.87420       -4.25347
C         -2.14693       10.18103       -5.28578
N         -2.31937       11.43664       -5.80095
C         -1.40315       12.44746       -5.76581
O         -0.24859       12.44597       -5.37390
C         -2.00908       13.62093       -6.39238
C         -3.23290       13.28011       -6.78902
C         -3.42371       11.84045       -6.49981
O         -4.39615       11.20014       -6.87039
C         -4.21984       14.12947       -7.39235
C         -5.43539       14.38352       -6.88219
C         -6.58090       15.12802       -7.44584
C         -6.53997       16.06374       -8.42792
C         -7.70666       16.77353       -8.87317
N         -8.62245       17.33448       -9.23798
C         -5.34095       16.45836       -9.08284
N         -4.36151       16.77604       -9.61978
C         -7.77902       14.74037       -6.63435
C         -7.35089       13.96948       -5.54599
C         -5.89797       13.78887       -5.58037
O         -5.22611       13.29710       -4.69705
C         -8.20018       13.43931       -4.58680
C         -9.56821       13.69347       -4.70659
C        -10.04397       14.47229       -5.79730
C         -9.14231       14.97802       -6.76119
C        -11.41959       14.72922       -5.89488
C        -12.31046       14.23091       -4.94234
C        -11.84161       13.45998       -3.88265
C        -10.47827       13.19017       -3.76551
H         -1.96619        0.00584        6.31789
H         -4.40431       -0.41255        1.95817
H         -6.32577       -1.34956        3.11486
H         -7.36353       -2.23279        5.15999
H         -6.12324       -2.20631        7.30574
H         -3.86740       -1.22408        7.43199
H          0.40718        3.18414        2.98326
H         -0.38487        3.89890       -2.14034
H          0.75760        8.85697        1.14747
H          0.09117        7.33500        1.68707
H         -1.38768        9.95546        1.34743
H         -1.12722        9.08426        2.85630
H         -2.22715        8.42026        1.65182
H         -0.56345        6.79771       -6.33673
H         -1.52867        8.20985       -6.31156
H         -2.62342        5.43183       -5.70578
H         -2.78850        6.28627       -7.23579
H         -3.58729        6.90882       -5.77684
H         -0.83894       10.67691       -3.71350
H         -2.75790        9.42848       -5.77528
H         -1.51319       14.57266       -6.44926
H         -3.90350       14.51074       -8.35674
H         -7.79676       12.84036       -3.77457
H         -9.55487       15.54054       -7.59171
H        -11.81318       15.32971       -6.71307
H        -13.37256       14.44667       -5.02882
H        -12.53754       13.06997       -3.14400
H        -10.13256       12.58526       -2.92940
