131

C        -17.33437       -0.14579       -6.39771
C        -18.69243       -0.44456       -6.47425
F        -19.48626        0.28954       -7.26801
C        -19.22191       -1.49899       -5.74598
F        -20.52409       -1.80055       -5.83941
C        -18.40395       -2.25584       -4.91140
C        -17.03463       -1.96849       -4.80516
C        -16.47646       -0.90362       -5.58448
C        -15.08125       -0.66026       -5.55637
C        -14.25443       -1.45361       -4.77172
C        -14.84380       -2.45306       -3.98243
C        -16.20155       -2.72581       -3.97612
C        -13.79958       -3.23463       -3.29557
O        -13.94019       -3.95243       -2.32939
C        -12.52896       -2.89254       -4.00995
C        -12.77040       -1.57170       -4.63394
C        -11.84660       -0.60859       -4.87729
C        -12.20445        0.68053       -5.36170
N        -12.49967        1.73009       -5.75276
C        -10.46647       -0.79488       -4.58725
N         -9.33835       -0.96299       -4.34680
C        -11.51978       -3.75839       -4.22677
C        -11.43657       -5.15896       -3.82862
C        -12.30005       -6.15342       -4.17835
N        -13.36114       -6.02440       -5.14518
O        -14.36715       -6.72590       -4.97108
O        -13.17444       -5.28407       -6.12142
C        -11.84277       -7.45641       -3.78542
C        -10.62947       -7.31500       -3.25128
C        -10.27703       -5.89800       -3.20187
C         -9.10960       -5.42685       -2.69788
C         -8.76128       -4.01121       -2.56555
C         -7.51052       -3.92554       -2.08338
C         -7.01128       -5.26357       -1.87010
N         -5.68440       -5.54694       -1.36714
O         -5.50819       -6.56924       -0.69267
O         -4.80359       -4.71434       -1.62449
C         -7.92029       -6.20567       -2.20327
C         -7.67868       -7.63445       -2.18246
C         -8.30820       -8.50573       -1.37803
C         -8.13506       -9.92748       -1.48869
N         -7.75898      -10.74238       -0.42110
C         -7.48731      -10.31045        0.93431
C         -6.04944       -9.86927        1.13543
C         -7.68023      -12.09550       -0.80354
O         -7.38695      -13.08693       -0.16772
C         -8.09880      -12.05312       -2.21066
C         -8.36708      -10.69151       -2.56478
C         -8.84174      -10.69230       -3.96339
O         -9.23307       -9.73980       -4.60690
N         -8.78246      -12.05845       -4.32913
C         -9.30017      -12.49188       -5.61536
C         -8.55794      -13.62444       -6.30487
C         -8.36113      -12.84076       -3.25321
C         -8.25777      -14.26792       -3.25576
C         -7.09994      -14.89834       -3.00479
C         -7.03707      -16.31404       -2.97222
S         -7.07106      -17.21571       -4.41921
C         -6.90646      -18.72530       -3.60799
C         -6.90100      -18.54566       -2.22780
C         -6.87381      -17.13261       -1.87001
C         -6.71569      -16.63319       -0.43386
N         -5.32397      -16.04628       -0.18590
O         -5.22420      -15.18592        0.69815
O         -4.37247      -16.52595       -0.82082
C         -6.92636      -17.72037        0.64084
C         -7.60751      -18.98199        0.11683
C         -6.85248      -19.56318       -1.10732
N         -7.49615      -20.88557       -1.43791
O         -6.77926      -21.78193       -1.90594
O         -8.69836      -21.00318       -1.18390
C         -6.71276      -19.87179       -4.43321
C         -7.68447      -20.65313       -4.93370
C         -9.10636      -20.52754       -4.69873
C         -9.91148      -21.46485       -4.16952
C        -11.15786      -20.96548       -3.49512
O        -11.82016      -19.98908       -3.77389
C        -11.33619      -21.85177       -2.32634
C        -12.10974      -21.56895       -1.21105
C        -11.95707      -22.37927       -0.07816
C        -11.02334      -23.46099       -0.09769
C        -10.84808      -24.23346        1.06098
C        -11.58856      -23.95752        2.20620
C        -12.49911      -22.91104        2.22132
C        -12.68342      -22.11769        1.09328
F        -13.20787      -22.65050        3.32839
F        -11.41086      -24.71198        3.29941
C        -10.26536      -23.72448       -1.25738
C        -10.42704      -22.92182       -2.38120
C         -9.67790      -22.82686       -3.66696
C         -9.09217      -23.85780       -4.31770
C         -8.64944      -23.74390       -5.66657
N         -8.30614      -23.66811       -6.77224
C         -8.98752      -25.15952       -3.75061
N         -8.90376      -26.21808       -3.28161
H        -16.95996        0.68296       -6.99798
H        -18.85177       -3.08173       -4.36182
H        -14.68293        0.12224       -6.19940
H        -16.58851       -3.55345       -3.38544
H        -10.68676       -3.47144       -4.86321
H        -12.34578       -8.39234       -3.97506
H        -10.03841       -8.15518       -2.97010
H         -9.38383       -3.16306       -2.78492
H         -6.95950       -3.02118       -1.87028
H         -6.91705       -7.98991       -2.87747
H         -9.05001       -8.16128       -0.66026
H         -7.69439      -11.15201        1.60536
H         -8.18060       -9.50757        1.20632
H         -5.34665      -10.64885        0.82526
H         -5.87032       -9.64432        2.19165
H         -5.82950       -8.96901        0.55585
H         -9.28652      -11.62784       -6.29246
H        -10.35496      -12.75399       -5.47524
H         -7.51440      -13.35510       -6.49260
H         -9.03438      -13.85517       -7.26292
H         -8.57513      -14.54801       -5.72701
H         -9.16943      -14.82201       -3.46903
H         -6.19154      -14.34408       -2.77722
H         -7.42005      -15.81144       -0.25978
H         -7.54115      -17.30112        1.44858
H         -5.98187      -18.01809        1.11441
H         -8.64182      -18.72097       -0.15774
H         -7.67898      -19.72084        0.92479
H         -5.81387      -19.78970       -0.83942
H         -5.68365      -20.09137       -4.71705
H         -7.36571      -21.44675       -5.60388
H         -9.49873      -19.51648       -4.82865
H        -12.75590      -20.69534       -1.20896
H        -10.13544      -25.05393        1.09091
H        -13.39339      -21.29682        1.14666
H         -9.50613      -24.50113       -1.22316
