124

C         -2.02669        2.45538        0.64115
C         -0.63853        2.45169        0.52294
F          0.05569        3.51488        0.94377
C          0.02094        1.34908       -0.00521
F          1.36004        1.34604       -0.09465
C         -0.68735        0.23197       -0.43092
C         -2.08375        0.21222       -0.30491
C         -2.76753        1.33513        0.23779
C         -4.16640        1.30835        0.42697
C         -4.86248        0.15484        0.11573
C         -4.15032       -0.94263       -0.39439
C         -2.79260       -0.93737       -0.65750
C         -4.98462       -2.14320       -0.38523
O         -4.68430       -3.21439       -0.86637
C         -6.22154       -1.75371        0.37067
C         -6.26273       -0.27665        0.36948
C         -7.35008        0.52804        0.40148
C         -7.26171        1.93602        0.22051
N         -7.17199        3.08578        0.05522
C         -8.67325        0.00784        0.51617
N         -9.74341       -0.43175        0.60198
C         -6.95680       -2.63227        1.07482
C         -6.72371       -4.06310        1.20449
C         -6.29199       -4.68451        2.33431
N         -5.97968       -4.02351        3.58658
O         -5.17986       -4.60008        4.33557
O         -6.53483       -2.94771        3.84984
C         -6.14526       -6.10894        2.15414
C         -6.47201       -6.41260        0.89053
C         -6.86090       -5.18429        0.19617
C         -7.28122       -5.13255       -1.09060
C         -7.68808       -3.89003       -1.75625
C         -8.14316       -4.18481       -2.97698
C         -8.02840       -5.60717       -3.16159
N         -8.46007       -6.24095       -4.37991
O         -9.07591       -7.30870       -4.29435
O         -8.27810       -5.60497       -5.42823
C         -7.46427       -6.23669       -2.10345
C         -7.06385       -7.64089       -2.12382
C         -7.67339       -8.65073       -1.48090
C         -7.35634      -10.05674       -1.63317
N         -7.08403      -10.89591       -0.54599
C         -6.91223      -10.50051        0.83543
C         -8.21302      -10.51110        1.61939
C         -6.97900      -12.24893       -0.93518
O         -6.75022      -13.23499       -0.26532
C         -7.21969      -12.19131       -2.38774
C         -7.39632      -10.80634       -2.74665
C         -7.66570      -10.77796       -4.19256
O         -7.85306       -9.80693       -4.89317
N         -7.68736      -12.14864       -4.55805
C         -7.89974      -12.48890       -5.94980
C         -6.70393      -12.22389       -6.84835
C         -7.44476      -12.97672       -3.45248
C         -7.53239      -14.42193       -3.35497
C         -8.17263      -15.28817       -4.15752
C         -8.35709      -16.70983       -3.83433
C         -7.32601      -17.63747       -4.02223
C         -6.00120      -17.46222       -4.62524
O         -5.54082      -16.45773       -5.12889
O         -5.36520      -18.67323       -4.55615
C         -6.18300      -19.68387       -3.94197
C         -7.43771      -18.96649       -3.64875
C         -8.59855      -19.44931       -3.08194
C         -9.66319      -18.56119       -2.91991
C         -9.57552      -17.19594       -3.30257
C        -10.77252      -16.39536       -2.95797
C        -11.49851      -15.46178       -3.59414
C        -11.36140      -14.89983       -4.91143
C        -11.39155      -13.59721       -5.24770
C        -11.45704      -13.28146       -6.72958
O        -11.38045      -14.05801       -7.65845
C        -11.65368      -11.82478       -6.83964
C        -11.81707      -11.08936       -8.01327
C        -11.99936       -9.69602       -7.91582
C        -12.03583       -9.09465       -6.62831
C        -12.20305       -7.70870       -6.50001
C        -12.34047       -6.91631       -7.62920
C        -12.31569       -7.49129       -8.89119
C        -12.14721       -8.86876       -9.04418
F        -12.45778       -6.72124       -9.97889
F        -12.50450       -5.59401       -7.48543
C        -11.89541       -9.87951       -5.47505
C        -11.66671      -11.24712       -5.56763
C        -11.41412      -12.29936       -4.53062
C        -11.10806      -12.00704       -3.24148
C        -10.80110      -12.95196       -2.23916
N        -10.55961      -13.62158       -1.31620
C        -10.99529      -10.68573       -2.72328
N        -10.88880       -9.63260       -2.24457
H         -2.50576        3.33074        1.07517
H         -0.13775       -0.61766       -0.82170
H         -4.65899        2.15980        0.88984
H         -2.30512       -1.83229       -1.02929
H         -7.74450       -2.26156        1.73089
H         -5.82486       -6.79740        2.92194
H         -6.44441       -7.39841        0.47394
H         -7.60936       -2.88364       -1.40082
H         -8.47937       -3.48417       -3.72576
H         -6.25179       -7.86637       -2.81622
H         -8.51145       -8.43583       -0.81921
H         -6.44041       -9.51709        0.87652
H         -6.21333      -11.20007        1.30957
H         -8.95731       -9.84555        1.17241
H         -8.03518      -10.18147        2.64826
H         -8.64088      -11.51819        1.65407
H         -8.72760      -11.86798       -6.30757
H         -8.21030      -13.51654       -6.08547
H         -6.37654      -11.18198       -6.78935
H         -6.97791      -12.42945       -7.88957
H         -5.86025      -12.86728       -6.58416
H         -7.10475      -14.82691       -2.43299
H         -8.67724      -15.01001       -5.06547
H         -5.68565      -20.04015       -3.03508
H         -6.32953      -20.50480       -4.64975
H         -8.69152      -20.48514       -2.76833
H        -10.58115      -18.93979       -2.46910
H        -11.11945      -16.62620       -1.94596
H        -12.35618      -15.07313       -3.04110
H        -11.30571      -15.65089       -5.70302
H        -11.79450      -11.59030       -8.97830
H        -12.20888       -7.22890       -5.52379
H        -12.12851       -9.27674      -10.05070
H        -11.96418       -9.36669       -4.52350
