129

C         -3.96383        1.76897        6.07218
N         -3.55913        1.36296        4.80769
C         -3.52927       -0.01351        4.36025
C         -4.90302       -0.66406        4.37681
C         -3.12695        2.44974        4.01997
O         -2.68820        2.46447        2.88710
C         -3.31544        3.60078        4.92848
C         -3.84621        3.09057        6.16491
C         -4.04987        4.21662        7.08394
O         -4.46581        4.16258        8.21898
N         -3.63763        5.31975        6.30814
C         -3.63275        6.66006        6.85889
C         -2.29947        7.01031        7.49776
C         -3.16880        4.92500        5.04739
C         -2.67645        5.85773        4.06916
C         -1.73542        5.58794        3.14667
C         -1.32033        6.52809        2.15080
S         -2.37216        7.77183        1.61454
C         -1.32850        8.30701        0.37227
C         -0.22562        7.45795        0.28943
C         -0.11761        6.58944        1.45386
C          1.14077        5.77909        1.73829
N          1.69037        6.03642        3.14154
O          2.02925        7.19427        3.42779
O          1.80787        5.05280        3.88523
C          2.29403        6.09800        0.76154
C          1.79735        6.25580       -0.67347
C          0.83684        7.45449       -0.79998
N          0.26529        7.36797       -2.21315
O         -0.74154        6.67289       -2.40158
O          0.89129        7.97196       -3.09604
C         -1.62939        9.45192       -0.43495
C         -2.71686       10.23712       -0.30590
C         -2.96011       11.44646       -1.13641
C         -3.73015       12.54709       -0.66472
O         -4.18281       12.43457        0.64015
C         -5.38415       13.11490        1.00145
C         -5.79259       12.80802        2.42897
C         -3.93078       13.66216       -1.52377
C         -3.38703       13.65786       -2.81839
C         -2.67180       12.56722       -3.28778
C         -2.47088       11.46774       -2.45666
C         -4.74725       14.83666       -1.19940
C         -4.28208       15.92794       -0.56600
C         -5.16890       16.90223        0.00272
S         -6.73624       17.18204       -0.63607
C         -7.12193       18.40355        0.49759
C         -6.01481       18.69288        1.28690
C         -4.97684       17.68769        1.13634
C         -3.80363       17.61018        2.09719
N         -3.58543       16.19969        2.62835
O         -2.49055       15.67476        2.38139
O         -4.49553       15.68751        3.29362
C         -3.99531       18.51288        3.33001
C         -4.47257       19.90253        2.91657
C         -5.87143       19.86344        2.25619
N         -6.01303       21.22230        1.56451
O         -5.65145       21.31581        0.38261
O         -6.36947       22.17047        2.27798
C         -8.42199       18.99028        0.54386
C         -9.19656       19.16645       -0.54033
C        -10.47436       19.82885       -0.52355
N        -11.51374       19.54085       -1.41200
C        -11.53144       18.49465       -2.41598
C        -11.00425       18.95749       -3.76513
C        -12.62582       20.39219       -1.20990
O        -13.69178       20.42513       -1.78792
C        -12.18413       21.25087       -0.09535
C        -10.85114       20.84354        0.26354
C        -10.39840       21.70586        1.36411
O         -9.33656       21.64053        1.96243
N        -11.49340       22.55794        1.56778
C        -11.48529       23.58838        2.58471
C        -10.92897       24.90334        2.06184
C        -12.54123       22.26568        0.69119
C        -13.77244       23.00211        0.68148
C        -14.97911       22.45072        0.86131
H         -4.31332        1.07593        6.82304
H         -2.83851       -0.56311        5.00931
H         -3.12370       -0.05021        3.34303
H         -5.32963       -0.67118        5.38516
H         -4.83763       -1.70040        4.03232
H         -5.59753       -0.12503        3.72431
H         -4.41431        6.71883        7.62599
H         -3.89949        7.38543        6.08442
H         -2.06231        6.31693        8.31145
H         -2.33151        8.02317        7.91065
H         -1.48454        6.96229        6.76885
H         -3.12719        6.84524        4.11045
H         -1.28282        4.59964        3.10899
H          0.90184        4.70956        1.68985
H          3.04734        5.30141        0.80929
H          2.81525        7.02455        1.03853
H          1.31130        5.32194       -0.98741
H          2.65540        6.39922       -1.34280
H          1.39578        8.39730       -0.75182
H         -0.88459        9.71881       -1.17704
H         -3.48320       10.04047        0.43933
H         -6.19562       12.84322        0.31743
H         -5.22559       14.18766        1.00646
H         -6.67775       13.39957        2.69212
H         -4.98798       13.07002        3.12300
H         -6.01630       11.74914        2.56522
H         -3.54579       14.50370       -3.48508
H         -2.27530       12.55818       -4.29792
H         -1.93398       10.61773       -2.87180
H         -5.80252       14.68237       -1.39811
H         -3.21719       16.01255       -0.35741
H         -2.88750       17.89337        1.56359
H         -3.04813       18.58941        3.87862
H         -4.72635       18.09279        4.03408
H         -3.72784       20.33086        2.23115
H         -4.49517       20.56056        3.79436
H         -6.65683       19.81517        3.02043
H         -8.76820       19.32457        1.51901
H         -8.85394       18.84237       -1.51940
H        -12.56935       18.16500       -2.54466
H        -10.96433       17.63009       -2.05530
H        -11.56822       19.81846       -4.13837
H        -11.09088       18.15007       -4.50010
H         -9.95075       19.24749       -3.70465
H        -10.85454       23.24672        3.41545
H        -12.49507       23.72366        2.98184
H         -9.87928       24.79697        1.76964
H        -10.99073       25.67442        2.83562
H        -11.48561       25.25033        1.18581
H        -13.69510       24.07380        0.53654
H        -15.11408       21.38376        1.03261
H        -15.87126       23.06612        0.84761
