138

C          1.71503       13.32219        5.65865
O          0.44606       13.42929        6.14833
C         -0.29570       12.73334        5.24429
C          0.55494       12.25690        4.25723
N          1.83914       12.65932        4.53066
C          0.02677       11.47324        3.22528
C         -1.33324       11.15252        3.25143
C         -2.13119       11.67263        4.25724
C         -1.65773       12.48264        5.26890
O         -3.39408       11.21115        4.08083
C         -3.30704       10.34778        3.00396
N         -2.09722       10.33862        2.45492
C         -4.38229        9.54582        2.56698
C         -5.66558        9.78958        2.88131
C         -6.79336        9.00396        2.31903
C         -8.06176        8.83020        2.93097
C         -8.35590        9.32759        4.32464
O         -7.42876        9.33170        5.13442
C         -9.67335        9.90334        4.69368
C        -10.64960       10.27993        3.78387
S        -11.91825       11.18096        4.46830
C        -11.21166       11.06834        6.01343
C        -10.10578       10.23434        6.06942
C         -9.47806        9.72267        7.30825
O         -9.05999        8.56537        7.35009
C         -9.33520       10.53633        8.56381
C         -8.16886       10.35888        9.32081
C         -7.95909       11.07264       10.50917
C         -8.91603       11.97865       10.95926
C        -10.09875       12.13367       10.24724
C        -10.31880       11.39445        9.07713
C         -9.03963        8.08440        2.24401
C         -8.77746        7.51922        0.98846
C         -7.52061        7.65875        0.39642
C         -6.57235        8.43824        1.04535
C         -7.11723        6.88951       -0.80253
C         -7.94088        6.90042       -1.87598
C         -7.79080        5.88993       -2.90654
C         -8.55498        5.54261       -3.98036
C         -9.75728        6.18925       -4.67540
C        -10.32513        7.49817       -4.03071
N        -11.10655        7.34564       -2.80065
C         -9.42106        6.61568       -6.15334
N         -9.16833        5.55443       -7.12270
C         -7.92661        4.29397       -4.46341
C         -8.34717        3.34607       -5.31774
C         -7.44174        2.22477       -5.81593
C         -6.09938        2.15911       -5.08437
C         -5.73032        3.03499       -4.13471
C         -6.65343        4.08055       -3.79273
C         -6.60838        4.99339       -2.81785
C         -5.61724        5.18554       -1.79276
C         -5.88256        6.07631       -0.82223
C         -7.18081        2.39066       -7.30566
C         -8.12333        2.38841       -8.27069
C         -7.89816        2.50601       -9.73551
C         -8.93164        2.46816      -10.70692
C        -10.41416        2.58959      -10.38674
O        -10.88253        2.21027       -9.32100
C        -11.29791        3.18078      -11.41386
C        -10.94466        4.39032      -12.00053
S        -12.09796        4.98361      -13.09416
C        -13.09891        3.63919      -12.82286
C        -12.58740        2.70113      -11.92846
C        -13.41632        1.48971      -11.67685
O        -14.56009        1.42252      -12.11326
C        -12.93447        0.30710      -10.91625
C        -11.60022       -0.09921      -10.91313
C        -11.16422       -1.07934      -10.02041
C        -12.08637       -1.77155       -9.24101
C        -13.44617       -1.49902       -9.37076
C        -13.86865       -0.45282      -10.19411
C         -8.58007        2.33231      -12.07122
C         -7.25237        2.38323      -12.49749
C         -6.23363        2.57983      -11.57214
C         -6.56775        2.62037      -10.21084
C         -4.84694        2.74217      -11.98603
O         -4.48072        2.08335      -13.13247
C         -3.15866        2.37286      -13.26147
C         -2.79199        3.20990      -12.21608
N         -3.87536        3.42226      -11.40260
C         -1.46753        3.66374      -12.14494
C         -0.54648        3.22746      -13.10556
C         -0.97566        2.37938      -14.10850
C         -2.27843        1.93368      -14.23562
O          0.09140        2.07909      -14.89087
C          1.15961        2.75313      -14.31832
N          0.79459        3.46952      -13.25967
C          2.49181        2.65515      -14.81500
C          2.80474        1.86145      -15.84787
H          2.49309       13.78497        6.24974
H          0.67082       11.08282        2.44483
H         -2.30372       12.85593        6.05112
H         -4.08182        8.71786        1.92103
H         -5.92564       10.61145        3.54002
H        -10.68405       10.12984        2.71592
H        -11.73961       11.58408        6.79275
H         -7.41115        9.64565        8.99531
H         -7.04618       10.92065       11.08358
H         -8.75020       12.54617       11.87121
H        -10.86376       12.81618       10.60903
H        -11.30063       11.48044        8.64159
H        -10.01324        7.88641        2.68760
H         -9.55263        6.92766        0.50533
H         -5.62261        8.57756        0.53221
H         -8.76897        7.58643       -1.88944
H        -10.57667        5.45775       -4.70247
H        -11.00809        7.98271       -4.73952
H         -9.51755        8.22628       -3.88042
H        -11.87005        6.69170       -2.96613
H        -10.55208        6.91362       -2.06818
H         -8.56214        7.29720       -6.15196
H        -10.27052        7.17477       -6.56133
H         -8.25001        5.14755       -6.93370
H         -9.09409        5.94203       -8.05979
H         -9.34468        3.39208       -5.74556
H         -7.94088        1.26265       -5.64452
H         -5.41012        1.36810       -5.36874
H         -4.76526        2.97669       -3.64587
H         -4.69423        4.61942       -1.80826
H         -5.14965        6.23484       -0.03660
H         -6.13335        2.52000       -7.55685
H         -9.14991        2.24330       -7.94719
H        -10.04945        4.97227      -11.82289
H        -14.04681        3.58444      -13.34596
H        -10.87551        0.36882      -11.56489
H        -10.10139       -1.28360       -9.92005
H        -11.74513       -2.53010       -8.54183
H        -14.17362       -2.07990       -8.80949
H        -14.93176       -0.22521      -10.25968
H         -9.33916        2.20022      -12.83972
H         -7.02838        2.30633      -13.55987
H         -5.73664        2.73475       -9.51764
H         -1.15626        4.33045      -11.34909
H         -2.58720        1.27159      -15.03477
H          3.25549        3.23962      -14.31352
H          2.06134        1.25908      -16.36212
H          3.82857        1.79423      -16.20040
