116

C        -18.16534       -0.32698       -8.58358
C        -19.47088       -0.28970       -8.07585
C        -19.77077       -0.83231       -6.82334
C        -18.78977       -1.48891       -6.09042
C        -17.52850       -1.63091       -6.65323
C        -17.17104       -0.97275       -7.86010
C        -15.68861       -1.16663       -8.09798
C        -14.98767       -0.77730       -9.19098
C        -15.56983       -0.06864      -10.28491
N        -16.02776        0.50827      -11.18421
C        -13.60947       -1.07899       -9.35935
N        -12.47738       -1.31486       -9.48744
C        -15.19395       -1.93417       -6.89872
C        -16.39737       -2.50544       -6.26068
C        -16.56396       -3.77679       -5.81200
C        -15.55694       -4.76085       -5.96733
N        -14.75838       -5.59585       -6.13862
C        -17.80642       -4.26301       -5.31152
N        -18.81036       -4.64319       -4.88714
C        -13.96440       -1.90463       -6.34279
C        -13.55442       -2.41195       -5.05529
C        -14.28511       -2.37633       -3.75625
N        -13.63231       -2.75161       -2.69228
C        -12.39997       -3.03545       -3.18635
C        -12.38701       -2.88935       -4.61913
C        -11.03694       -3.28088       -5.11881
S        -10.69082       -3.90311       -6.62170
C        -10.22056       -3.24988       -3.85368
C        -11.16555       -3.25807       -2.74565
N        -10.51985       -3.31911       -1.55739
C         -9.27119       -3.23971       -1.91859
C         -8.97751       -3.09857       -3.38122
C         -7.66572       -2.80195       -3.94702
C         -7.51556       -2.58898       -5.28504
C         -6.20153       -2.40481       -5.88025
C         -5.79906       -2.33600       -7.18140
C         -6.63497       -2.32472       -8.46112
C         -6.36197       -1.02408       -9.27460
N         -7.15446       -0.83086      -10.49535
C         -6.43670       -3.56805       -9.36405
N         -6.76591       -4.83339       -8.71574
C         -4.32909       -2.30719       -7.09962
C         -3.37148       -2.49404       -8.02338
C         -1.89288       -2.60354       -7.65549
C         -1.58950       -2.23603       -6.20796
C         -2.54737       -2.03347       -5.28810
C         -3.91515       -2.18991       -5.70276
C         -5.03619       -2.30178       -4.98010
C         -5.22170       -2.36504       -3.55679
C         -6.45538       -2.63068       -3.08397
C         -1.06617       -1.83540       -8.66296
C         -0.25660       -0.78851       -8.43135
C          0.52676       -0.15905       -9.44305
C          0.23317       -0.06905      -10.89797
N          1.15959        0.45884      -11.64904
C          2.13746        0.75364      -10.75487
C          1.71281        0.44723       -9.40873
C          2.81556        0.80053       -8.46290
S          2.76327        0.99660       -6.81657
C          3.95327        1.04472       -9.40639
C          3.41491        1.11320      -10.75268
N          4.39522        1.39584      -11.64440
C          5.46700        1.40738      -10.90453
C          5.28220        1.13084       -9.45038
C          6.35292        0.98535       -8.50671
C          6.65741       -0.08508       -7.74367
C          7.58678       -0.05122       -6.57741
C          8.84689        0.43771       -6.53985
C          9.44024        1.04450       -7.68554
N          9.89123        1.54082       -8.63119
C          9.69430        0.30208       -5.39916
N         10.38004        0.19214       -4.47254
C          6.88221       -0.83667       -5.51226
C          5.82651       -1.57816       -6.12139
C          4.90887       -2.26701       -5.34035
C          5.05482       -2.23505       -3.95004
C          6.10890       -1.53165       -3.35229
C          7.02663       -0.82215       -4.12987
C          5.87072       -1.33316       -7.59658
C          5.50346       -2.18806       -8.58096
C          4.82295       -3.40971       -8.33054
N          4.24199       -4.40180       -8.15337
C          5.87722       -1.96428       -9.94122
N          6.20410       -1.78083      -11.03653
H        -17.99900        0.13801       -9.54828
H        -20.26227        0.17581       -8.66009
H        -20.78546       -0.77155       -6.43305
H        -19.04567       -1.90534       -5.11996
H        -13.14921       -1.38397       -6.84326
H        -15.33249       -2.04582       -3.72623
H         -8.44883       -3.27639       -1.19087
H         -8.34374       -2.59495       -5.97237
H         -7.69613       -2.30127       -8.17641
H         -5.30696       -0.98830       -9.56313
H         -6.54870       -0.15302       -8.63562
H         -7.35702       -1.70310      -10.97585
H         -6.61392       -0.27395      -11.15880
H         -5.41213       -3.61377       -9.74173
H         -7.07442       -3.50187      -10.25155
H         -7.78363       -4.92221       -8.67425
H         -6.44558       -5.60273       -9.30157
H         -3.62241       -2.66820       -9.06122
H         -1.61263       -3.66182       -7.76448
H         -0.54785       -2.16851       -5.90565
H         -2.30813       -1.76633       -4.26596
H         -4.37491       -2.22514       -2.89336
H         -6.56889       -2.68505       -2.00647
H         -1.13806       -2.24298       -9.67210
H         -0.12989       -0.40755       -7.42149
H         -0.73239       -0.43340      -11.27859
H          6.48059        1.59306      -11.29053
H          6.94556        1.89635       -8.41854
H          4.05402       -2.78340       -5.76447
H          4.32448       -2.73813       -3.31875
H          6.19218       -1.50834       -2.26653
H          7.79109       -0.24353       -3.62171
