102

C         -3.16544       -1.09865        5.95800
O         -3.89209       -1.67704        5.17876
C         -3.37969        0.24656        6.50509
C         -2.40482        0.54069        7.47570
C         -2.34453        1.83416        7.97355
C         -3.26344        2.79590        7.50358
C         -4.24277        2.45984        6.54458
C         -4.31047        1.16189        6.03823
Br        -5.46549        3.72422        5.82288
Br        -3.07642        4.55913        8.19235
C         -1.55222       -0.66803        7.66636
C         -0.77406       -0.97765        8.73636
C         -0.61988       -0.09542        9.83956
N         -0.49566        0.63749       10.73311
C         -0.10598       -2.22872        8.85472
N          0.44904       -3.25463        8.93707
C         -1.84930       -1.54780        6.52467
C         -1.02897       -2.38916        5.87663
C         -1.37236       -3.02391        4.60869
C         -2.01843       -4.25690        4.50970
F         -2.32741       -4.91215        5.64127
C         -2.35482       -4.85898        3.28248
F         -2.96970       -6.05118        3.36072
C         -2.07455       -4.30693        2.00859
C         -1.42001       -3.02552        2.05160
C         -1.07207       -2.37336        3.38345
N         -0.47917       -1.17218        3.25292
S         -0.35376       -0.87609        1.62965
N         -1.01504       -2.26336        1.01740
C         -2.35952       -4.99629        0.71534
C         -2.28928       -6.36082        0.67175
C         -2.25563       -7.05735       -0.60543
C         -1.99813       -8.36637       -0.91715
C         -1.84592       -9.60197        0.00412
C         -3.20594      -10.34876        0.20922
N         -3.12626      -11.47997        1.15083
C         -0.76912      -10.62131       -0.47830
N         -0.48531      -11.77788        0.38069
C         -1.67847       -8.28650       -2.35992
C         -0.89228       -9.04339       -3.14365
C         -0.42845       -8.60580       -4.52018
C         -1.16485       -7.40352       -5.06893
C         -1.93282       -6.62075       -4.29170
C         -2.04633       -6.97842       -2.90003
C         -2.34682       -6.23099       -1.83463
C         -2.62552       -4.82228       -1.75607
C         -2.62472       -4.24756       -0.54037
C         -0.42476       -9.79549       -5.43196
C         -1.40787      -10.19314       -6.25352
C         -1.32162      -11.44198       -7.00469
C         -0.70161      -12.60726       -6.52757
F         -0.07025      -12.59370       -5.34018
C         -0.70117      -13.82668       -7.21662
F         -0.12124      -14.85759       -6.57966
C         -1.25363      -14.02061       -8.49847
C         -1.90435      -12.87735       -9.04460
C         -1.95346      -11.56386       -8.27416
N         -2.63489      -10.60836       -8.92970
S         -3.10471      -11.25489      -10.38099
N         -2.52776      -12.80152      -10.23245
C         -1.29477      -15.30500       -9.21385
C         -0.37518      -16.28293       -9.16522
C         -0.82265      -17.68414       -9.46875
O         -1.71497      -18.04557      -10.20403
C         -0.02751      -18.53404       -8.55542
C          0.92284      -17.75420       -7.87419
C          0.90718      -16.39336       -8.46351
C          1.92761      -15.50231       -8.48669
C          1.85541      -14.28692       -9.23106
N          1.77167      -13.28094       -9.80417
C          3.13823      -15.71360       -7.76910
N          4.10851      -15.88014       -7.15622
C          1.59297      -18.29900       -6.78996
C          1.36074      -19.64387       -6.45388
C          0.46228      -20.43145       -7.20469
C         -0.25832      -19.86707       -8.26161
Br         0.13740      -22.26373       -6.82410
Br         2.28108      -20.30736       -4.92736
H         -1.57918        2.13855        8.68263
H         -5.02151        0.87867        5.26798
H         -0.00894       -2.57667        6.19750
H         -2.09441       -6.96752        1.54677
H         -1.52342       -9.23789        0.98927
H         -3.56548      -10.73045       -0.75377
H         -3.96315       -9.66246        0.59960
H         -2.29847      -12.04090        0.88750
H         -3.91911      -12.10609        1.02332
H          0.17663      -10.09763       -0.65184
H         -1.12216      -11.07458       -1.40827
H         -0.21656      -11.45979        1.31112
H          0.30525      -12.29556       -0.00313
H         -0.41868       -9.94598       -2.80504
H          0.62226       -8.29974       -4.41221
H         -1.00336       -7.14664       -6.11161
H         -2.42048       -5.73571       -4.67954
H         -2.79338       -4.24360       -2.65708
H         -2.81493       -3.17905       -0.47722
H          0.48008      -10.39490       -5.33414
H         -2.32346       -9.61518       -6.35437
H         -2.24094      -15.49854       -9.72515
H          2.25482      -17.70011       -6.17055
H         -1.00375      -20.43076       -8.81540
