85

C         -8.71862       -2.91370       -1.56599
C         -8.36916       -3.84784       -2.49035
C         -8.85216       -5.18889       -2.46008
N         -9.24858       -6.27880       -2.44172
C         -7.53774       -3.55183       -3.60703
N         -6.85087       -3.32505       -4.51473
C         -9.67281       -3.11841       -0.42792
C        -10.06153       -1.86510        0.04638
C        -10.91706       -1.66199        1.12280
C        -11.44219       -2.80164        1.76706
C        -11.07303       -4.07028        1.29442
C        -10.17922       -4.25087        0.20453
S        -11.84140       -5.31844        2.21283
C        -12.61498       -4.19851        3.21122
C        -12.33341       -2.89834        2.88967
Br       -13.74528       -4.68773        4.62276
C         -9.43439       -0.79763       -0.73721
O         -9.79984        0.36030       -0.75211
C         -8.37768       -1.46271       -1.57128
C         -7.31629       -0.82161       -2.09400
C         -7.02329        0.56575       -1.94696
O         -6.45081        1.30073       -2.98750
C         -7.12075        1.45412       -0.90707
C         -7.47874        1.53941        0.47958
O         -7.69656        0.62746        1.25815
N         -7.39683        2.88650        0.76757
C         -6.89066        3.64942       -0.26281
O         -6.60453        4.83170       -0.23054
C         -6.73706        2.72688       -1.34554
C         -6.29646        2.64272       -2.63781
C         -5.74491        3.59475       -3.53509
C         -6.02814        4.90398       -3.45525
C         -5.48038        5.86181       -4.34766
O         -5.36493        7.21192       -3.99908
C         -4.99675        5.78015       -5.62797
C         -4.77726        4.86085       -6.70247
O         -5.00149        3.66489       -6.73849
N         -4.23729        5.63813       -7.70998
C         -4.09598        6.97131       -7.37908
O         -3.65391        7.86860       -8.07067
C         -4.58580        7.05163       -6.04186
C         -4.79470        7.95546       -5.03326
C         -4.52130        9.35025       -4.98700
C         -4.76689       10.06956       -3.88127
C         -4.52996       11.50317       -3.78736
C         -4.78840       12.27572       -2.71908
C         -4.65497       13.71597       -2.68397
C         -5.25266       14.28354       -1.62257
C         -5.90338       13.32209       -0.74680
S         -5.41338       11.68989       -1.20198
C         -6.84948       13.56498        0.18034
C         -7.45675       14.84307        0.50411
C         -8.63556       14.72483        1.13837
C         -9.02444       13.34871        1.37531
S         -7.68369       12.28016        1.05665
C        -10.25581       12.94531        1.72860
C        -10.60346       11.58184        1.87758
S        -10.49714       10.69608        3.36378
C        -11.08077        9.21532        2.65230
C        -11.34283        9.46152        1.35084
C        -11.08736       10.74820        0.93137
O        -11.35943       11.03838       -0.37364
C        -11.83086        9.80217       -0.78113
N        -12.26913        9.72628       -2.14486
O        -12.67366        8.62002       -2.52972
O        -12.23441       10.75987       -2.82406
C        -11.83838        8.81024        0.21000
H        -11.15523       -0.65635        1.45784
H         -9.92149       -5.26273       -0.08628
H        -12.73657       -2.04305        3.41877
H         -6.58260       -1.34693       -2.69480
H         -7.54655        3.25827        1.68928
H         -5.08383        3.19750       -4.29823
H         -6.68861        5.29852       -2.68920
H         -3.97923        5.26316       -8.60340
H         -4.10758        9.81846       -5.87589
H         -5.18848        9.57154       -3.00923
H         -4.15679       11.98090       -4.69135
H         -4.15993       14.27349       -3.46753
H         -5.28726       15.35142       -1.45971
H         -7.03243       15.79314        0.21102
H         -9.26079       15.56317        1.41411
H        -11.04746       13.67503        1.86621
H        -11.19016        8.31465        3.23941
H        -12.17564        7.79023        0.09372
