106

C          3.28280       -5.66015       -8.05250
C          3.53962       -5.51073       -6.75244
C          3.86682       -4.28225       -6.07834
C          4.22375       -4.45696       -4.79565
C          4.24179       -5.85262       -4.38562
S          3.55298       -6.86077       -5.66627
C          4.76136       -6.36416       -3.25360
C          5.35812       -5.64064       -2.14550
C          5.85875       -6.43371       -1.18477
C          5.69180       -7.84503       -1.45422
S          4.89675       -8.09962       -2.98084
C          6.09277       -8.84218       -0.65000
C          5.95876      -10.24802       -0.91179
C          6.95312      -10.88319       -1.62759
S          6.68363      -12.54731       -1.75854
C          5.20957      -12.43903       -0.89799
C          4.88023      -11.14652       -0.50309
C          3.62319      -10.97598        0.19703
C          3.18816       -9.57867        0.66855
C          2.33732       -8.78617       -0.31802
C          2.80318      -12.13665        0.50686
C          1.50795      -11.95973        1.29181
C          0.27997      -11.73677        0.40843
C          3.21104      -13.46693        0.08757
C          2.63309      -14.80910        0.21357
C          3.39167      -15.78723       -0.38848
S          4.81271      -15.15775       -1.06417
C          4.40966      -13.55659       -0.61578
C          1.33824      -15.11493        0.73944
C          0.85919      -16.22785        1.32947
C         -0.52689      -16.32441        1.66049
S         -1.21047      -17.32403        2.91255
C         -2.88173      -16.75024        2.65909
C         -2.76618      -15.73004        1.78894
C         -1.56761      -15.63656        1.13303
N         -1.61808      -14.77112        0.08912
N         -2.79836      -14.08288        0.14287
C         -3.45941      -14.63362        1.19653
C         -3.96337      -17.36003        3.35402
C         -5.17125      -17.72839        2.86337
C         -5.80235      -17.54684        1.53927
C         -6.81070      -16.60826        1.26468
C         -7.28334      -16.35904       -0.08094
N         -8.34850      -15.57253       -0.30911
C         -9.00894      -15.07827        0.76778
C         -8.57833      -15.31957        2.05154
N         -7.44472      -16.03377        2.30846
C         -9.39005      -15.00838        3.19124
N        -10.09894      -14.80614        4.08781
C        -10.22381      -14.37964        0.46829
N        -11.22522      -13.83280        0.23873
C         -6.73758      -16.98673       -1.19550
C         -6.22366      -18.25997       -0.86730
C         -5.78240      -18.56713        0.55019
N         -5.47421      -19.86569        0.71345
S         -5.76536      -20.62098       -0.73936
N         -6.09874      -19.30797       -1.69733
C         -7.00068      -16.64105       -2.59561
C         -6.31741      -15.78469       -3.37793
C         -5.13463      -14.90860       -3.22672
C         -4.84328      -14.03084       -2.23752
C         -5.71298      -13.75881       -1.15612
N         -6.39402      -13.43443       -0.26488
C         -3.73043      -13.13919       -2.30347
N         -2.78928      -12.45938       -2.36312
C         -4.59210      -14.67101       -4.60364
C         -5.60203      -14.97966       -5.51076
C         -6.67094      -15.74871       -4.84855
O         -7.62444      -16.25594       -5.40143
C         -5.62276      -14.49398       -6.81198
C         -4.58809      -13.60415       -7.19056
C         -3.49997      -13.42758       -6.32549
C         -3.44002      -14.03299       -5.05224
S         -2.33412      -12.33987       -6.98884
C         -3.32901      -11.99165       -8.30569
C         -4.46873      -12.75132       -8.34123
Br        -2.91552      -10.68523       -9.58213
H          3.30701       -4.82578       -8.74209
H          3.06261       -6.64094       -8.46627
H          3.84384       -3.32434       -6.57829
H          4.52426       -3.64398       -4.15038
H          5.40223       -4.56144       -2.09888
H          6.34858       -6.06599       -0.29293
H          6.61396       -8.59155        0.27130
H          7.83572      -10.45067       -2.07793
H          4.07096       -8.98460        0.91698
H          2.66302       -9.62555        1.62419
H          2.84739       -8.62324       -1.26215
H          2.08789       -7.80605        0.10327
H          1.39868       -9.27134       -0.56956
H          1.57524      -11.15622        2.03452
H          1.34270      -12.83038        1.93341
H          0.32422      -10.79729       -0.13184
H         -0.62857      -11.71530        1.01740
H          0.17250      -12.51069       -0.35413
H          3.16757      -16.83749       -0.50930
H          0.65558      -14.29986        0.59961
H          1.52558      -17.05080        1.58408
H         -0.95970      -14.63983       -0.66782
H         -4.40670      -14.19753        1.47885
H         -3.75652      -17.61478        4.39311
H         -5.82848      -18.24153        3.56362
H         -7.81761      -17.21804       -3.03744
H         -6.47233      -14.68598       -7.46008
H         -2.57530      -13.84369       -4.42632
H         -5.22249      -12.67003       -9.11417
