89

C          3.38893       -2.87000      -10.34741
C          3.19217       -2.21775       -9.20005
C          3.64355       -0.88420       -8.90725
C          3.38221       -0.49895       -7.65007
C          2.73596       -1.52410       -6.84479
S          2.35732       -2.92722       -7.85028
C          2.53879       -1.47742       -5.51335
C          2.88030       -0.37763       -4.62853
C          2.86990       -0.70629       -3.32804
C          2.52705       -2.09182       -3.09231
S          1.94735       -2.83770       -4.56418
C          2.70378       -2.72292       -1.92001
C          2.49908       -4.12639       -1.76921
S          0.97417       -4.71403       -1.22677
C          1.43148       -6.38308       -1.34705
C          2.72535       -6.47342       -1.83723
C          3.35791       -5.18120       -2.00502
C          4.68617       -5.01011       -2.42272
C          5.33634       -6.23561       -2.65678
F          6.62608       -6.19896       -3.02914
C          4.71024       -7.50424       -2.52963
F          5.43205       -8.60567       -2.79405
C          3.37412       -7.68329       -2.13525
C          0.45990       -7.36391       -0.96928
C          0.82139       -8.53372       -0.42122
C         -0.09720       -9.61006       -0.13892
C          0.23671      -10.91775       -0.11337
C          1.60441      -11.47349       -0.42354
C         -0.80302      -11.96326        0.20636
N         -1.47071      -12.32716       -1.02516
C         -2.48188      -13.24368       -1.14404
C         -3.12100      -13.58971       -2.26703
C         -4.11416      -14.60728       -2.24243
S         -3.62020      -16.23814       -2.52324
C         -5.22043      -16.87129       -2.38480
C         -6.10252      -15.85782       -2.07606
C         -5.47882      -14.55643       -2.03055
C         -6.18431      -13.36883       -1.79644
C         -7.57250      -13.58723       -1.58196
C         -8.38751      -12.42700       -1.33089
N         -9.00879      -11.46531       -1.12347
C         -8.18541      -14.89566       -1.59263
O         -9.54886      -14.92679       -1.37894
C        -10.02842      -16.05633       -0.65125
C         -7.46741      -16.08296       -1.86960
C         -5.41266      -18.26951       -2.59327
C         -5.65614      -18.78733       -3.80764
C         -5.67389      -20.20307       -4.09854
C         -5.55747      -20.47221       -5.40836
C         -5.45229      -19.28052       -6.23683
S         -5.86326      -17.86230       -5.27589
C         -4.98530      -19.21462       -7.49824
C         -4.44799      -20.32174       -8.27037
C         -3.79884      -19.94031       -9.38040
C         -3.81168      -18.51413       -9.58374
S         -4.78606      -17.70459       -8.39420
C         -3.14760      -17.85434      -10.53539
H          3.93035       -2.42086      -11.17194
H          3.02218       -3.88249      -10.48870
H          4.16012       -0.27156       -9.63262
H          3.67732        0.46372       -7.25902
H          3.14978        0.60630       -4.98515
H          3.13765       -0.02494       -2.53227
H          3.10193       -2.18784       -1.06337
H          5.19161       -4.06484       -2.56124
H          2.94255       -8.67216       -2.09187
H         -0.58900       -7.14880       -1.16291
H          1.86175       -8.72553       -0.17690
H         -1.13451       -9.32551        0.03786
H          2.25794      -10.75793       -0.92920
H          1.52298      -12.33697       -1.09303
H          2.09974      -11.79645        0.49730
H         -1.53284      -11.57380        0.92571
H         -0.33377      -12.84068        0.66730
H         -1.12427      -11.90582       -1.88310
H         -2.74066      -13.71572       -0.19568
H         -2.87152      -13.13355       -3.22233
H         -5.73656      -12.38127       -1.78082
H        -11.09621      -15.90604       -0.46551
H         -9.52432      -16.14032        0.31780
H         -9.93130      -16.98345       -1.22396
H         -7.92248      -17.05878       -1.94410
H         -5.25216      -18.92204       -1.74075
H         -5.71004      -20.96092       -3.32827
H         -5.49967      -21.47568       -5.80504
H         -4.50790      -21.35206       -7.95113
H         -3.28968      -20.61921      -10.04978
H         -2.51942      -18.36816      -11.25340
H         -3.19975      -16.77168      -10.60746
