70

O         18.34793        3.40250        1.22594
C         17.31323        2.96028        1.70311
O         16.96099        1.65517        1.56708
C         16.36204        3.72396        2.49342
C         16.60044        4.93483        3.11047
C         15.43504        5.41658        3.77911
S         15.06638        6.84266        4.71128
C         13.44742        6.31181        4.88940
C         13.18475        5.08764        4.31399
C         11.85607        4.39789        4.37482
S         11.64420        2.67813        4.31125
C          9.93162        2.77359        4.48667
C          9.55047        4.08156        4.55094
C         10.62538        4.98172        4.49387
C         10.07398        6.28572        4.50867
C          8.72123        6.24809        4.58783
C          7.85869        7.40205        4.57019
C          6.52235        7.38580        4.68490
C          5.73238        8.57298        4.65743
S          6.16578       10.00555        3.75492
C          4.74567       10.87175        4.22357
C          3.96706       10.08308        5.01724
C          4.52424        8.81609        5.25009
C          3.63951        8.10583        6.09298
C          2.56568        8.86545        6.40968
C          1.43749        8.53348        7.23622
C          1.54206        7.78671        8.34924
C          0.45468        7.51402        9.23521
S          0.50158        5.92498        9.93940
C         -0.92555        6.23534       10.86074
C         -1.68751        5.46804       11.79219
C         -2.73771        6.19799       12.30451
C         -3.71092        5.73606       13.28047
O         -3.93397        4.56659       13.55654
O         -4.34389        6.75647       13.91569
S         -2.81902        7.78123       11.66023
C         -1.40884        7.49558       10.65227
C         -0.63198        8.26299        9.69818
C         -0.95856        9.66312        9.35727
C         -2.29929       10.07924        9.25733
C         -2.64552       11.41538        9.02249
C         -1.65419       12.36081        8.78919
C         -0.31578       11.95877        8.81245
N          0.73436       12.93299        8.47880
O          0.37937       14.08680        8.19625
O          1.91248       12.54965        8.52365
C          0.03318       10.63551        9.14441
C          2.69869       10.19518        5.69072
O          1.90512       11.12014        5.68563
C          8.29924        4.78897        4.64059
O          7.17948        4.32139        4.72987
C         14.35770        4.57716        3.66549
S         14.75800        3.16737        2.71153
H         16.12629        1.45746        2.03593
H         17.55576        5.44733        3.08515
H         12.78152        6.93100        5.47323
H          9.31816        1.88222        4.50627
H         10.65607        7.19374        4.42327
H          8.37731        8.35030        4.45644
H          5.98816        6.45053        4.84053
H          4.57284       11.88555        3.89068
H          3.81785        7.09555        6.43726
H          0.49642        8.98646        6.94348
H          2.50289        7.33936        8.60354
H         -1.46074        4.44840       12.08579
H         -4.01910        7.62564       13.60916
H         -3.11616        9.36973        9.36450
H         -3.69308       11.70960        9.00879
H         -1.93722       13.39142        8.58453
H          1.08529       10.37268        9.21833
