63

O          2.24982        0.84997        0.14454
C          3.30670        0.24860        0.11091
C          4.77998        0.70536       -0.03586
C          5.38725        1.36901        1.24263
C          6.41304        2.33413        1.04062
N          6.89469        2.74114       -0.14452
S          8.07705        3.86252        0.16867
N          8.02854        3.89179        1.82652
C          7.08592        3.01428        2.19763
C          6.72409        2.71826        3.52525
C          5.73157        1.76905        3.70897
N          5.40880        1.48757        4.98121
C          4.45079        0.55372        5.17432
F          4.11310        0.24951        6.43482
C          3.83336       -0.08507        4.12013
F          2.89628       -1.01633        4.34856
N          4.14622        0.18334        2.83021
C          5.08462        1.10915        2.59499
C          5.11543       -0.80363       -0.10466
O          6.14154       -1.42078       -0.31746
C          3.68117       -1.24311        0.24562
C          3.06198       -2.20244       -0.79185
C          2.69331       -3.47970       -0.29312
N          2.81992       -3.88886        0.98030
S          2.26111       -5.44166        1.06053
N          1.84093       -5.66837       -0.52095
C          2.11789       -4.53059       -1.17971
C          1.90930       -4.30683       -2.56638
C          1.36501       -5.51374       -3.35493
C          0.01603       -5.27667       -4.05644
O         -1.07826       -4.93267       -3.65260
C          0.55191       -5.68852       -5.45007
C          0.04452       -7.10189       -5.89090
C         -0.74775       -7.16508       -7.07102
N         -1.09491       -6.12703       -7.84852
S         -2.01500       -6.73319       -9.08946
N         -2.01687       -8.34526       -8.69931
C         -1.29527       -8.46870       -7.57701
C         -1.04455       -9.67580       -6.89829
C         -0.27405       -9.60205       -5.75014
N         -0.04746      -10.76259       -5.11287
C          0.70241      -10.70434       -3.98873
F          0.94156      -11.84764       -3.33101
C          1.20924       -9.51389       -3.51399
F          1.94237       -9.49086       -2.39172
N          0.98738       -8.33462       -4.14077
C          0.25490       -8.34681       -5.26086
C          1.94560       -5.70632       -4.77452
O          3.07397       -5.85522       -5.20359
C          2.24823       -3.02784       -3.01781
N          2.01271       -2.78199       -4.31544
C          2.36332       -1.55864       -4.77871
F          2.13206       -1.29462       -6.07247
C          2.93912       -0.59901       -3.96777
F          3.27602        0.59517       -4.47463
N          3.18302       -0.81370       -2.65208
C          2.82995       -2.00985       -2.15786
H          4.95076        1.22225       -0.98644
H          7.20882        3.20508        4.36342
H          3.60719       -1.58136        1.28272
H          1.36510       -6.45030       -2.79250
H          0.46639       -4.88315       -6.18781
H         -1.43951      -10.61844       -7.25898
