67

C          3.19803        0.73430       11.37007
C          3.21888        1.44732       10.23570
C          3.22865        0.80612        8.96322
C          2.07446        0.54915        8.19887
C          0.71344        0.98076        8.57523
C         -0.43088        0.71851        7.61204
O          0.44859        1.58356        9.61949
S          2.28413       -0.35978        6.72319
C          4.02230       -0.35941        6.89191
C          4.83954       -1.10337        5.91704
S          6.17670       -2.02681        6.50916
C          6.50613       -2.83069        5.01966
C          7.75303       -3.64582        4.95085
C          8.21819       -4.37619        6.04173
N          9.37132       -5.07945        6.06203
C         10.10769       -5.08816        4.92405
C          9.77960       -4.42971        3.73633
C         10.60932       -4.56388        2.49484
C         10.27400       -3.94741        1.28562
N         10.94772       -4.07835        0.11114
C         12.03603       -4.87454        0.11431
C         12.51994       -5.51289        1.24680
C         13.70599       -6.37940        1.17734
C         15.00066       -6.01683        1.24014
C         16.02180       -6.99870        0.66443
O         15.93186       -8.20547        0.55797
C         17.05744       -6.11064        0.19984
C         16.81916       -4.75936        0.57192
C         17.73365       -3.88224        0.05567
S         18.94120       -4.74617       -0.83738
C         18.20059       -6.25381       -0.52699
Cl        18.91049       -7.68585       -1.14175
C         15.66110       -4.69801        1.42845
C         15.43539       -3.78734        2.40210
C         14.55305       -4.04400        3.49093
N         13.89742       -4.26510        4.41951
C         16.20784       -2.59733        2.50683
N         16.84027       -1.62538        2.57637
C         11.77291       -5.36550        2.42466
C          8.58605       -3.66528        3.80879
C          5.51008       -2.50245        4.10688
C          5.31254       -3.10253        2.83729
C          5.85987       -4.35580        2.43614
N          6.27726       -5.37050        2.05805
C          4.40563       -2.42291        1.99544
C          3.75588       -1.21845        2.36253
C          3.88086       -0.61882        3.63733
C          3.31917        0.67859        3.85681
N          2.85902        1.73539        3.94701
C          4.72195       -1.31663        4.54471
S          4.77922        0.36487        8.29972
H          3.19980        1.24010       12.33393
H          3.16627       -0.34970       11.38354
H          3.23626        2.53218       10.27428
H         -0.33461        1.36472        6.73456
H         -1.38203        0.94577        8.10377
H         -0.46801       -0.33275        7.31671
H          7.67733       -4.41719        6.98302
H         11.01044       -5.68256        5.02897
H          9.40327       -3.30584        1.18784
H         12.50138       -5.00354       -0.86079
H         13.45943       -7.40743        0.90048
H         17.79923       -2.80388        0.13134
H         12.12387       -5.90844        3.29903
H          8.28535       -3.06487        2.95633
H          4.20238       -2.82733        1.00069
H          3.12401       -0.73549        1.61216
