52

C          3.05289       -1.05215        0.38013
O          2.36679       -0.02100       -0.32700
C          3.15311        1.03557       -0.62805
C          2.90259        2.31048       -0.15219
C          1.92411        2.91424        0.73203
C          2.15173        4.09185        1.42227
N          1.29321        4.63642        2.31487
C          0.12797        3.98390        2.48270
C         -0.77023        4.48265        3.51625
O         -2.10856        4.27965        3.31203
C         -2.76583        4.79827        4.37878
C         -1.87582        5.32895        5.27971
C         -0.57724        5.13466        4.72803
C          0.71897        5.51357        5.34133
N         -0.22599        2.85407        1.84348
C          0.68616        2.34741        0.98586
O          3.84951        3.15889       -0.63955
C          4.68139        2.44313       -1.45347
C          5.77644        3.18475       -2.06295
N          5.82737        4.51266       -1.86886
C          6.91948        5.13794       -2.36259
C          7.95501        4.50186       -3.02133
C          9.14026        5.20158       -3.47841
C          9.57196        6.51247       -3.42735
C         10.85247        6.55557       -4.04704
C         11.71825        7.74032       -4.24779
C         11.11804        5.25761       -4.42692
O         10.09256        4.43707       -4.08951
C          7.76873        3.14152       -3.17963
N          6.69721        2.45942       -2.71498
C          4.28408        1.11174       -1.49574
C          4.93721        0.06178       -2.30807
F          4.31208       -1.14131       -2.22216
F          4.95552        0.37081       -3.62944
F          6.21864       -0.16168       -1.91855
H          2.31967       -1.58450        0.99307
H          3.83512       -0.66412        1.04232
H          3.47410       -1.77904       -0.31672
H          3.07720        4.64810        1.29379
H         -3.84298        4.70723        4.35299
H         -2.12800        5.79209        6.22342
H          0.56897        6.00396        6.30888
H          1.26834        6.20556        4.69577
H          1.33711        4.62478        5.50766
H          0.36895        1.43181        0.49364
H          6.93147        6.20997       -2.18590
H          9.03615        7.34641       -2.99497
H         11.31430        8.61700       -3.73137
H         11.79400        7.97845       -5.31349
H         12.72524        7.55382       -3.86135
H         11.95154        4.78010       -4.92428
H          8.50499        2.52473       -3.69006
