63

C          2.99829        1.65198       -2.29796
C          3.79544        2.12724       -1.33366
C          3.60112        1.78099        0.02734
S          4.06568        2.89132        1.29344
C          3.43728        1.91407        2.59224
C          3.45135        2.27393        3.95730
C          3.37416        3.49248        4.52705
C          3.27344        4.79104        3.92632
C          4.42765        5.49816        3.67178
S          4.11880        7.00593        2.97010
C          2.40187        6.78406        3.02689
C          1.63595        7.93300        2.51772
O          2.06202        8.61758        1.57696
C          0.31822        8.33173        3.18214
F         -0.05755        7.55461        4.23247
F          0.35000        9.60682        3.66477
F         -0.71909        8.30169        2.29441
C          2.07658        5.52489        3.54133
C          0.75279        4.98929        3.66425
C          0.21042        4.29531        4.69675
C         -1.10806        3.87966        4.36367
C         -1.40575        4.34317        3.06091
C         -2.66651        4.01285        2.65408
S         -3.44122        3.04221        3.84701
C         -2.06861        3.07746        4.92449
C         -2.09893        2.26113        6.08742
C         -1.46611        2.58654        7.22447
C         -1.40001        1.66665        8.31251
S         -1.66161        2.24996        9.91878
C         -1.44121        0.69784       10.61059
C         -1.14774       -0.24107        9.65594
O         -0.85731       -1.51841        9.99178
C         -0.64808       -2.43541        9.01663
O         -0.01687       -3.46585        9.18990
C         -1.37882       -2.19955        7.68516
O         -2.25431       -2.88968        7.20425
S         -0.70131       -0.74841        7.01369
C         -1.11229        0.31008        8.35295
C         -0.23788        5.07011        2.48835
C          3.50841        3.36999        5.97176
C          3.66892        2.10273        6.34828
C          3.61897        1.33574        5.09860
O          3.69088        0.12266        5.04166
C          3.00325        0.76777        2.02490
N          2.46494       -0.36924        2.55591
N          2.15383       -1.25858        1.55520
C          2.54594       -0.60866        0.41419
C          3.08994        0.69697        0.65250
H          3.14503        1.95596       -3.32959
H          2.16793        0.98236       -2.09897
H          4.58340        2.83177       -1.59075
H          5.44991        5.18664        3.84712
H          0.69158        4.07205        5.63592
H         -3.16990        4.25524        1.72849
H         -2.64343        1.32206        6.00696
H         -0.99714        3.55819        7.34883
H         -1.50960        0.56486       11.67868
H         -0.53085        6.08650        2.24112
H          0.15461        4.56997        1.59919
H          3.48833        4.21660        6.64226
H          3.80768        1.68519        7.32892
H          2.33281       -0.61013        3.53428
H          2.42034       -1.11638       -0.53393
