107

C         15.74856        6.09636        4.59130
C         16.79868        5.99257        5.50575
C         16.96718        4.82856        6.25075
C         16.06774        3.77229        6.10916
C         14.98054        3.87473        5.22977
C         14.00752        2.86376        5.18475
C         12.88224        3.05966        4.40027
C         12.81311        4.15375        3.52390
C         13.76353        5.15706        3.52775
C         14.83239        5.04834        4.43194
C         11.58541        4.07074        2.68881
O         11.25369        4.83392        1.80713
C         10.88905        2.81436        3.12997
C         11.53938        2.43702        4.39439
C         10.89476        2.17472        5.55961
C          9.49175        2.40778        5.67606
N          8.36940        2.67687        5.80492
C         11.57205        1.83749        6.76890
N         12.12008        1.52925        7.74348
C         10.06043        2.13159        2.30990
C          9.65038        0.74488        2.47506
C          9.21186       -0.15557        1.57358
C          9.01497       -1.40205        2.29341
C          9.37642       -1.04135        3.64659
N          9.75234        0.20500        3.75963
O          9.30381       -1.93636        4.63567
C          9.21742       -1.37435        5.95467
C          8.55593       -2.30539        1.41454
N          8.45129       -1.78142        0.11598
C          8.83739       -0.53298        0.21751
O          8.89409        0.36780       -0.76992
C          8.15770        0.02021       -1.95502
C          8.10582       -3.68945        1.64726
C          8.92640       -4.82162        1.64597
C          8.38720       -6.16160        1.80714
N          9.27065       -7.17991        1.84101
C         10.57813       -6.99250        1.56087
C         11.05132       -5.73702        1.30546
N         10.24997       -4.64067        1.41327
C         12.38753       -5.50983        0.82392
N         13.45353       -5.36885        0.40617
C         11.37964       -8.17301        1.53094
N         12.05842       -9.13097        1.51852
C          6.98842       -6.46773        1.84560
C          6.15603       -5.35028        1.56811
C          6.71046       -3.93884        1.56394
N          5.74960       -3.00360        1.45638
S          4.35263       -3.79701        1.07828
N          4.86222       -5.36269        1.21110
C          6.44955       -7.86397        2.06439
C          5.19940       -8.37439        2.22870
C          5.36800       -9.80751        2.37945
C          6.78403      -10.00584        2.39346
N          7.42138       -8.88503        2.20847
O          7.29676      -11.20771        2.67735
C          8.64654      -11.23164        3.16735
C          4.16390      -10.37383        2.45456
N          3.13820       -9.44776        2.44116
C          3.73733       -8.28574        2.32268
O          3.11432       -7.10725        2.34600
C          1.70524       -7.16140        2.08889
C          3.76868      -11.74867        2.59892
C          4.02532      -12.75084        1.74391
C          3.52300      -14.14283        1.73398
C          3.23275      -14.91747        2.80794
C          2.89919      -16.29819        2.69572
N          2.63522      -17.42413        2.60552
C          3.31617      -14.43930        4.14725
N          3.37579      -14.06324        5.24347
C          3.58668      -14.59907        0.31383
C          4.31575      -13.65729       -0.42260
C          4.55422      -13.75964       -1.78398
C          4.03038      -14.86402       -2.46169
C          4.22297      -15.01917       -3.84172
C          3.69041      -16.12014       -4.51290
C          2.96125      -17.07795       -3.81396
C          2.75683      -16.93808       -2.44065
C          3.27924      -15.83799       -1.74587
C          3.05722      -15.69121       -0.36036
C          4.72011      -12.53488        0.42942
O          5.46041      -11.63614        0.09050
H         15.63423        7.01940        4.02667
H         17.48377        6.82588        5.64026
H         17.78870        4.74923        6.95863
H         16.20620        2.88202        6.72056
H         14.11179        1.98645        5.81801
H         13.64242        6.02414        2.88528
H          9.75254        2.61002        1.37834
H         10.21095       -1.22923        6.39275
H          8.65867       -2.08004        6.57349
H          8.66385       -0.42915        5.95735
H          8.25336        0.84494       -2.66765
H          7.09675       -0.09240       -1.70924
H          8.53722       -0.89083       -2.43344
H          9.30394      -11.71994        2.44186
H          8.64307      -11.82733        4.08526
H          9.04186      -10.24152        3.41562
H          1.21446       -6.34788        2.62767
H          1.23238       -8.09882        2.40022
H          1.55683       -7.02035        1.01531
H          3.09732      -11.89619        3.44221
H          5.11606      -12.98371       -2.29725
H          4.78742      -14.28107       -4.40832
H          3.84492      -16.22956       -5.58335
H          2.54803      -17.93621       -4.33803
H          2.18284      -17.70074       -1.91756
H          2.45291      -16.43849        0.14351
