107

C         -0.13465       -0.03927       -1.69811
C         -1.49341       -0.18244       -1.44689
F         -2.36486       -0.04667       -2.45465
C         -1.96311       -0.44299       -0.16683
C         -1.05830       -0.58032        0.88760
C          0.31984       -0.42355        0.66935
C          0.78581       -0.13177       -0.64742
C          2.14997        0.11010       -0.88285
C          3.02952        0.12976        0.18710
C          2.56798       -0.24551        1.45862
C          1.23779       -0.52705        1.72434
C          3.69138       -0.29313        2.41612
O          3.63033       -0.60257        3.58714
C          4.91533        0.04160        1.60977
C          4.44251        0.56861        0.32347
C          5.02116        1.54530       -0.41895
C          6.18371        2.24503        0.02212
N          7.11009        2.84396        0.38164
C          4.45489        2.03190       -1.63182
N          3.99021        2.41228       -2.62485
C          6.10945       -0.36632        2.06556
C          7.29993       -0.44619        1.28219
C          7.47986       -0.72746       -0.07847
C          8.84592       -0.80070       -0.42008
C          9.64568       -0.63673        0.68454
S          8.83966       -0.27799        2.08897
C         10.97657       -0.92580        0.32399
C         11.02148       -1.27847       -1.00409
C          9.68547       -1.10293       -1.58123
C          9.32511       -1.09600       -2.88027
C         10.27719       -1.31400       -3.91246
N         11.06344       -1.49852       -4.74524
C          7.99084       -0.78635       -3.27157
N          6.89239       -0.52363       -3.54137
C         12.30745       -1.75031       -1.36535
C         13.19075       -1.74524       -0.27167
S         12.42897       -0.98511        1.10958
C         14.59568       -2.23235       -0.16610
C         15.52322       -2.17432       -1.22909
C         16.88063       -2.65661       -1.10666
N         17.70227       -2.56202       -2.17563
C         17.25170       -2.05534       -3.34755
C         15.97165       -1.58759       -3.45468
N         15.11298       -1.63892       -2.40232
C         15.46024       -1.00975       -4.65836
N         15.08132       -0.53301       -5.64882
C         18.18496       -2.06083       -4.43498
N         18.92452       -2.06322       -5.32975
C         17.39718       -3.22322        0.08705
C         16.48876       -3.31200        1.17915
C         15.06653       -2.82529        1.04742
N         14.36014       -3.04748        2.17009
S         15.37058       -3.68530        3.30079
N         16.74423       -3.82033        2.39877
C         18.78409       -3.74321        0.25936
C         19.61202       -3.77408        1.39536
C         20.85098       -4.40806        1.13223
C         20.92233       -4.83155       -0.17340
S         19.57656       -4.53589       -1.08359
C         22.11337       -5.55630       -0.36560
C         22.78810       -5.61731        0.82890
C         22.07050       -4.82672        1.83200
C         22.47298       -4.52545        3.08259
C         23.72495       -4.98248        3.58645
N         24.75308       -5.37368        3.95780
C         21.68855       -3.70018        3.93490
N         21.04825       -3.02110        4.62398
C         23.88236       -6.50190        0.74840
C         24.02953       -7.02676       -0.54171
S         22.79800       -6.41047       -1.61145
C         24.92849       -8.01032       -1.04843
C         26.17280       -8.20666       -0.59020
C         26.83708       -9.52939       -0.84702
O         26.59180      -10.33330       -1.72079
C         27.76716       -9.71656        0.28457
C         28.49790      -10.85304        0.58850
C         29.24504      -10.85738        1.77623
C         29.18248       -9.73567        2.65759
C         29.89607       -9.76486        3.86123
C         30.68672      -10.86308        4.17415
C         30.78007      -11.94873        3.31402
C         30.05374      -11.95181        2.12147
F         31.37735      -10.86854        5.32147
C         28.42729       -8.60210        2.31532
C         27.76616       -8.57326        1.09944
C         26.99231       -7.51649        0.40758
C         27.24388       -6.18662        0.47642
C         26.70589       -5.25890       -0.46490
N         26.29673       -4.48911       -1.22977
C         28.14803       -5.62982        1.42126
N         28.88537       -5.17898        2.19645
H          0.18504        0.17829       -2.71406
H         -3.03171       -0.53005        0.00308
H         -1.44239       -0.78237        1.88561
H          2.48185        0.31839       -1.89590
H          0.92583       -0.78492        2.73301
H          6.17306       -0.75433        3.08491
H          6.65578       -0.91701       -0.75404
H         12.58259       -2.12809       -2.34347
H         19.30122       -3.38764        2.35937
H         24.50458       -6.80348        1.58093
H         24.52292       -8.71568       -1.77714
H         28.47954      -11.70884       -0.08106
H         29.86046       -8.93408        4.56129
H         31.41802      -12.78634        3.57798
H         30.13498      -12.81199        1.45978
H         28.37740       -7.76545        3.00709
