147

C          7.85899       -5.53631       12.79972
O          7.99582       -6.46372       13.56464
C          8.91519       -4.94586       11.96757
C          8.50067       -3.69938       11.47267
C          9.27967       -3.07032       10.51334
C         10.44915       -3.71489       10.06172
C         10.83891       -4.96863       10.58270
C         10.07108       -5.58968       11.56616
Br        12.34299       -5.93604        9.94223
Br        11.42006       -2.84499        8.67670
C          7.15538       -3.41415       12.04235
C          6.62499       -2.19084       12.27885
C          7.30972       -0.98651       11.92282
N          7.87878       -0.02187       11.63233
C          5.39692       -2.03317       12.98673
N          4.39888       -1.89945       13.56257
C          6.63776       -4.72475       12.49053
C          5.40020       -5.22981       12.33108
C          4.96365       -6.64691       12.43657
C          3.65547       -6.92685       12.84742
C          3.18901       -8.25136       12.93607
C          4.01627       -9.33322       12.60643
C          5.30303       -9.05988       12.14251
C          5.75674       -7.73361       12.03478
C          3.55717      -10.73920       12.84326
C          3.85178      -11.35558       14.16950
C          5.08192      -12.00438       14.36306
C          5.39696      -12.57747       15.59600
C          4.48610      -12.50397       16.64720
C          3.26713      -11.84915       16.46904
C          2.95097      -11.27129       15.23586
C          2.93846      -11.47890       11.87211
C          2.35511      -12.82409       12.17351
C          1.02955      -12.92082       12.62592
C          0.44145      -14.16867       12.85732
C          1.17132      -15.33487       12.63762
C          2.49069      -15.25242       12.19459
C          3.08109      -14.00397       11.96369
C          2.87966      -10.96289       10.47492
C          3.88572      -11.31114        9.57103
C          3.89592      -10.79015        8.26598
C          2.90610       -9.90135        7.80793
C          1.86812       -9.61581        8.71941
C          1.85144      -10.13591       10.02867
C          2.97003       -9.29045        6.43606
C          3.88284       -9.44922        5.40527
C          3.56287       -8.68403        4.20436
N          4.31489       -8.75475        3.06224
C          5.38858       -9.59643        3.19247
C          6.22699       -9.75657        1.97514
O          5.96628       -9.21678        0.90821
C          7.42443      -10.61820        2.06927
C          7.74765      -11.26112        3.19116
C          6.92849      -11.14378        4.41182
O          7.28073      -11.73507        5.42522
C          5.71244      -10.29482        4.35400
N          4.97773      -10.25835        5.49909
C          2.43371       -7.88584        4.33730
S          1.77582       -8.14603        5.92139
C          1.75957       -6.93591        3.38572
C          2.35116       -6.53840        2.18216
C          1.70295       -5.66795        1.26376
C          0.35880       -5.31040        1.37597
C         -0.17451       -5.58712        2.65213
C          0.50867       -6.35488        3.63313
C         -0.48233       -4.57952        0.28924
C         -1.86019       -4.12701        0.75189
C         -2.91219       -5.07314        0.72431
C         -4.20526       -4.72989        1.13057
C         -4.46810       -3.43758        1.57537
C         -3.43387       -2.50021        1.63432
C         -2.13292       -2.84350        1.23763
C         -0.24457       -4.44262       -1.08304
C         -0.89844       -3.22791       -1.81360
C         -0.03628       -2.27695       -2.41446
C         -0.50433       -1.30128       -3.30555
C         -1.86823       -1.14367       -3.50009
C         -2.75080       -1.97846       -2.82187
C         -2.27084       -3.03877       -2.03201
C          0.77947       -5.25224       -1.94095
C          1.45189       -6.40385       -1.53921
C          2.63350       -6.84447       -2.18032
C          3.03521       -6.31147       -3.40453
C          2.19643       -5.36115       -3.97129
C          1.08308       -4.87658       -3.26626
C          4.28016       -6.63839       -4.12350
C          5.01323       -7.75963       -4.16143
C          6.36875       -7.70748       -4.81081
O          6.79118       -6.89642       -5.60733
C          7.12853       -8.82433       -4.22219
C          6.31247       -9.55593       -3.34268
C          4.91335       -9.06579       -3.51070
C          3.80004       -9.82689       -3.39471
C          2.54774       -9.45212       -3.96845
N          1.53009       -9.19013       -4.45984
C          3.82514      -11.12341       -2.80386
N          3.85828      -12.16629       -2.31103
C          6.90046      -10.52899       -2.54705
C          8.27326      -10.80445       -2.70338
C          9.04758      -10.11192       -3.65798
C          8.47221       -9.09534       -4.42191
Br        10.88838      -10.47445       -3.95685
Br         9.01501      -12.13170       -1.55942
H          8.97776       -2.13076       10.05885
H         10.31481       -6.57237       11.95994
H          4.60130       -4.57488       11.98477
H          2.97943       -6.11887       13.12084
H          2.17765       -8.43093       13.29080
H          5.97660       -9.87037       11.88021
H          6.75907       -7.58902       11.64601
H          5.80389      -12.06221       13.55238
H          6.35190      -13.07719       15.73477
H          4.72836      -12.95388       17.60662
H          2.56200      -11.78741       17.29347
H          2.00180      -10.75865       15.11305
H          0.44251      -12.02195       12.79434
H         -0.58774      -14.23068       13.20189
H          0.71235      -16.30567       12.80890
H          3.05968      -16.16280       12.02258
H          4.10887      -13.96168       11.61542
H          4.68570      -11.98337        9.87529
H          4.72114      -11.10440        7.63303
H          1.04002       -8.96822        8.44469
H          1.03509       -9.87426       10.69692
H          8.02821      -10.70376        1.17339
H          8.62544      -11.89625        3.25736
H          3.34180       -6.89045        1.90397
H          2.29573       -5.32175        0.42357
H         -1.14972       -5.20167        2.94630
H          0.00312       -6.48721        4.58738
H         -2.72321       -6.08692        0.37620
H         -5.00449       -5.46716        1.09208
H         -5.47686       -3.16117        1.87493
H         -3.64766       -1.49169        1.98300
H         -1.34500       -2.09633        1.28415
H          1.04225       -2.35980       -2.28336
H          0.20040       -0.68716       -3.86180
H         -2.24136       -0.38044       -4.17874
H         -3.82218       -1.82770       -2.93155
H         -3.00831       -3.70333       -1.59711
H          1.11981       -6.96252       -0.67074
H          3.22325       -7.60177       -1.67261
H          2.39878       -4.95576       -4.96132
H          0.46763       -4.16852       -3.81341
H          4.67066       -5.78206       -4.68315
H          6.32997      -11.06617       -1.79472
H          9.04769       -8.51799       -5.14057
