87

C        -11.73497       -4.23173       -8.30363
O        -11.89055       -4.12532       -7.10711
C        -12.19522       -5.35193       -9.13436
C        -12.18200       -4.99354      -10.49181
C        -12.48972       -5.96670      -11.43379
C        -12.80238       -7.27086      -10.99828
C        -12.79879       -7.59808       -9.62551
C        -12.50106       -6.62191       -8.67500
Br       -13.13256       -9.35056       -8.97435
Br       -13.19572       -8.55402      -12.34721
C        -11.72362       -3.57652      -10.58471
C        -11.96891       -2.70831      -11.60324
C        -12.69400       -3.08798      -12.76520
N        -13.29148       -3.40955      -13.70300
C        -11.59138       -1.33718      -11.52383
N        -11.26928       -0.22026      -11.45075
C        -11.12933       -3.25550       -9.26862
C        -10.07073       -2.47849       -8.97629
C         -9.43063       -2.50214       -7.70210
C         -9.69717       -1.76372       -6.57262
C         -8.87167       -2.11326       -5.45544
Cl        -9.17423       -1.34511       -3.95272
C         -7.95165       -3.11183       -5.74658
S         -8.09302       -3.53717       -7.42791
C         -6.99017       -3.81156       -4.89308
C         -6.21237       -3.37723       -3.82828
Cl        -6.06000       -1.79474       -3.18479
C         -5.41702       -4.41836       -3.25071
C         -5.53831       -5.62665       -3.90528
S         -6.69124       -5.50099       -5.15701
C         -4.83597       -6.86042       -3.61307
C         -4.43313       -7.87206       -4.46094
C         -3.70324       -8.92492       -3.78143
N         -3.17405      -10.00227       -4.43253
C         -3.42136       -9.96819       -5.77850
C         -2.84097      -11.08774       -6.55866
O         -2.16980      -11.97397       -6.04502
C         -3.08274      -11.11665       -8.01432
C         -3.80724      -10.17874       -8.62485
C         -4.40072       -9.04994       -7.88362
O         -5.08134       -8.23186       -8.48957
C         -4.14505       -8.96629       -6.42563
N         -4.66955       -7.87092       -5.80385
C         -3.59965       -8.72237       -2.41609
S         -4.36598       -7.22952       -2.00237
C         -2.97098       -9.56442       -1.40660
C         -2.31692      -10.76769       -1.59121
C         -1.81708      -11.33578       -0.37845
Cl        -0.96022      -12.82584       -0.43555
C         -2.09936      -10.56161        0.73765
S         -2.97226       -9.16305        0.26323
C         -1.79078      -10.80515        2.13849
C         -1.44885       -9.92802        3.15791
Cl        -1.33667       -8.21607        3.08684
C         -1.12533      -10.59983        4.37880
C         -1.21013      -11.97527        4.28524
S         -1.93887      -12.39380        2.78548
C         -0.91473      -12.94504        5.29014
C         -0.43123      -14.17816        5.07237
C         -0.59379      -15.18913        6.16912
O         -0.73356      -14.98942        7.35636
C         -0.65295      -16.49549        5.48367
C         -0.42226      -16.33469        4.10668
C         -0.02067      -14.92115        3.87301
C          0.80676      -14.48545        2.89176
C          1.43377      -13.20469        2.94376
N          1.97124      -12.17585        2.99979
C          1.18976      -15.30355        1.79204
N          1.48438      -15.98147        0.89841
C         -0.59291      -17.42527        3.26665
C         -0.91985      -18.67433        3.82601
C         -1.08810      -18.82105        5.21871
C         -0.97082      -17.71323        6.06211
Br        -1.49017      -20.48703        6.03769
Br        -1.11833      -20.12370        2.61037
H        -12.46241       -5.76228      -12.50146
H        -12.46148       -6.84165       -7.61192
H         -9.57699       -1.88519       -9.73968
H        -10.49254       -1.02932       -6.52439
H         -4.75352       -4.26061       -2.40735
H         -2.64137      -11.94429       -8.55973
H         -3.99352      -10.20135       -9.69347
H         -2.18937      -11.24326       -2.55746
H         -0.80008      -10.08828        5.27803
H         -1.17491      -12.66097        6.31085
H         -0.49266      -17.33762        2.18868
H         -1.13281      -17.78696        7.13403
