103

C          9.69155       -0.66498      -11.31792
C         10.75751       -0.90926      -12.18668
C         12.03195       -1.15010      -11.68128
C         12.25191       -1.13013      -10.30475
C         11.20496       -0.84527       -9.41791
C         11.45831       -0.73071       -8.04018
C         10.43437       -0.34097       -7.19266
C          9.13227       -0.21235       -7.70364
C          8.83755       -0.34920       -9.04989
C          9.89394       -0.62427       -9.93061
C          8.17840        0.07540       -6.61059
O          6.97922        0.23099       -6.71654
C          8.99761        0.05216       -5.35450
C         10.40656        0.09362       -5.77415
C         11.42538        0.72415       -5.13876
C         11.19248        1.55723       -4.00384
N         11.00205        2.28884       -3.12404
C         12.77165        0.68371       -5.59987
N         13.87269        0.60264       -5.96075
C          8.38846       -0.24031       -4.19125
C          9.05559       -0.65082       -2.99182
C          8.69146       -0.35557       -1.67725
C          9.67083       -0.83544       -0.76320
C         10.65215       -1.53248       -1.41300
S         10.40965       -1.76211       -3.05632
C         11.73819       -1.88394       -0.64251
C         11.68579       -1.52536        0.66539
S         10.14099       -0.81614        0.90177
C         12.93970       -1.85417        1.22092
C         13.74168       -2.34962        0.17509
N         12.92042       -2.48619       -0.95777
C         13.20231       -3.17685       -2.19278
C         15.21031       -2.64683        0.24740
C         16.14614       -2.40388       -0.79184
C         17.56030       -2.67619       -0.65122
N         18.38521       -2.45720       -1.70168
C         17.87531       -2.00652       -2.86128
C         16.54762       -1.71796       -2.98617
N         15.69152       -1.89593       -1.96156
C         18.12751       -3.15642        0.55246
C         17.23301       -3.36455        1.63807
C         15.75476       -3.12149        1.48194
N         15.07888       -3.40780        2.61131
S         16.16872       -3.86714        3.75758
N         17.55726       -3.78795        2.87458
C         19.56811       -3.45705        0.76205
C         20.36529       -3.18260        1.87690
C         21.69592       -3.64265        1.68035
C         21.82616       -4.26109        0.46877
S         20.43755       -4.33451       -0.47153
C         23.08894       -4.72065        0.17416
C         24.05667       -4.48154        1.10085
S         23.26353       -3.71178        2.41374
C         25.27053       -4.94946        0.54759
C         24.96037       -5.44159       -0.72345
N         23.57836       -5.37688       -0.91338
C         22.79979       -5.97990       -1.96993
C         25.77863       -5.88917       -1.80227
C         26.93668       -6.56429       -1.69206
C         27.92632       -6.84976       -2.76153
C         27.67554       -7.11606       -4.06784
C         28.69824       -7.47456       -4.99408
N         29.52889       -7.75876       -5.75240
C         26.35736       -7.13257       -4.60637
N         25.27530       -7.13374       -5.03891
C         29.25174       -6.96354       -2.07821
C         29.02158       -7.05940       -0.69936
C         30.02759       -7.14775        0.24753
C         31.34998       -7.12778       -0.19601
C         32.41030       -7.17918        0.72082
C         33.73169       -7.15408        0.27832
C         34.00973       -7.07937       -1.08262
C         32.96541       -7.01859       -2.00951
C         31.62718       -7.03393       -1.58929
C         30.56745       -6.94730       -2.52170
C         27.58627       -6.98216       -0.40577
O         27.08704       -7.26557        0.66137
H          8.70545       -0.47870      -11.73868
H         10.59373       -0.90530      -13.26153
H         12.86082       -1.33912      -12.35906
H         13.25978       -1.30842       -9.93384
H         12.46388       -0.91130       -7.67354
H          7.81867       -0.21195       -9.40190
H          7.29864       -0.22563       -4.15156
H          7.83302        0.24250       -1.39680
H         13.24291       -1.67235        2.24297
H         14.05094       -3.85058       -2.06605
H         13.40266       -2.43500       -2.97104
H         12.34354       -3.79364       -2.46644
H         18.57262       -1.88909       -3.68205
H         16.12318       -1.34593       -3.91163
H         20.02350       -2.68255        2.77447
H         26.24825       -4.88913        1.00496
H         23.39937       -6.71576       -2.50897
H         22.47075       -5.19451       -2.65383
H         21.95483       -6.51331       -1.52843
H         25.44906       -5.55435       -2.78105
H         29.77505       -7.20303        1.30358
H         32.21424       -7.23427        1.78970
H         34.54551       -7.19388        0.99834
H         35.04119       -7.06569       -1.42594
H         33.21243       -6.95885       -3.06777
H         30.81606       -6.84181       -3.57327
