158

C         11.25072       -9.05873       -2.83329
C         10.95726       -9.85754       -4.07250
O         10.48639      -10.97450       -4.11535
C         11.28424       -8.94925       -5.21205
C         11.77573       -7.72835       -4.69908
C         12.07803       -7.93626       -3.26392
C         13.18712       -7.46892       -2.64333
C         13.75807       -8.15932       -1.52810
N         14.28975       -8.76075       -0.69641
C         13.94407       -6.37043       -3.15336
N         14.51254       -5.45281       -3.56428
C         11.96017       -6.64532       -5.53937
C         11.77262       -6.83118       -6.91119
C         11.41846       -8.08746       -7.44796
C         11.14305       -9.18046       -6.58791
C         10.79466      -10.42258       -7.15964
C         10.75778      -10.58804       -8.54510
C         11.03972       -9.51416       -9.38218
C         11.35336       -8.26939       -8.83714
C         10.55615       -9.28131       -1.70237
C         10.39969       -8.39141       -0.52871
C         10.09201       -8.94898        0.72741
C          9.82601       -8.09839        1.80046
C          9.90475       -6.69893        1.64850
C         10.18663       -6.13684        0.42022
C         10.39763       -6.98549       -0.66835
C          9.60075       -6.05265        2.90186
C          9.27436       -7.02862        3.85739
C          9.37005       -8.43314        3.23307
C          7.97730       -9.13901        3.21212
C          6.88409       -8.44457        2.39242
C         10.40380       -9.32024        3.98415
C         11.84131       -8.79994        3.98826
C          8.89733       -6.65447        5.14182
C          8.83830       -5.28870        5.49114
C          9.21455       -4.33246        4.52378
C          9.58935       -4.70803        3.22940
C          8.20802       -4.86627        6.78118
C          8.25074       -5.70280        7.85804
C          7.24165       -5.55969        8.89539
C          6.89943       -6.38387        9.92520
C          7.69793       -7.55148       10.49890
C          8.61314       -7.00439       11.64286
N          9.45946       -8.00345       12.30768
C          6.88587       -8.77821       10.98189
N          6.10194       -9.42651        9.93002
C          5.55147       -5.91856       10.29665
C          4.50804       -6.54179       10.87032
C          3.11435       -5.93037       10.94320
C          3.05026       -4.48495       10.47019
C          4.07561       -3.87132        9.85587
C          5.27488       -4.63657        9.65232
C          6.27433       -4.44931        8.78608
C          6.45792       -3.42001        7.80380
C          7.37743       -3.63525        6.84814
C          2.57921       -6.07958       12.34100
C          1.46413       -6.76355       12.64445
C          0.99040       -6.88858       14.01967
C          1.39453       -7.98036       14.80026
C          0.86919       -8.10233       16.07834
C         -0.02051       -7.13278       16.58522
C         -0.39968       -6.03931       15.82677
C          0.10770       -5.92083       14.53441
C         -0.43800       -7.51287       17.91098
C          0.19821       -8.71501       18.27694
C          1.09701       -9.20094       17.12604
C          0.61254      -10.59618       16.61730
C         -0.81741      -10.64370       16.06516
C          2.59967       -9.24508       17.53097
C          3.22247       -7.90171       17.92681
C         -0.08866       -9.32142       19.49337
C         -1.01885       -8.71348       20.35287
C         -1.67571       -7.53318       19.94989
C         -1.36957       -6.91501       18.73892
C         -1.38443       -9.40979       21.59258
C         -1.75616       -8.89553       22.77321
C         -2.45343       -9.82355       23.72147
O         -2.36684      -11.03403       23.73726
C         -3.31488       -8.95674       24.56203
C         -3.05860       -7.60365       24.24843
C         -1.90713       -7.54304       23.30815
C         -1.02133       -6.52228       23.20417
C          0.22797       -6.66578       22.52615
N          1.26424       -6.75794       22.01906
C         -1.20659       -5.27014       23.85648
N         -1.37060       -4.24605       24.38137
C         -3.85140       -6.61624       24.80822
C         -4.84186       -6.98634       25.72492
C         -5.06029       -8.33369       26.08363
C         -4.29341       -9.36022       25.48410
C         -4.55288      -10.70083       25.84408
C         -5.52870      -11.01527       26.78905
C         -6.26907      -10.00088       27.38374
C         -6.04098       -8.67092       27.02888
H         12.26212       -5.66728       -5.17771
H         11.94722       -5.98556       -7.57655
H         10.58311      -11.28620       -6.53154
H         10.52005      -11.56095       -8.96826
H         11.02232       -9.64528      -10.46126
H         11.57283       -7.44453       -9.51246
H          9.92497      -10.17108       -1.65807
H         10.03751      -10.02612        0.86110
H         10.20232       -5.06038        0.28854
H         10.51956       -6.51492       -1.63898
H          7.60176       -9.24883        4.23769
H          8.08613      -10.15837        2.81637
H          6.68282       -7.43347        2.75922
H          5.95008       -9.01317        2.45104
H          7.13973       -8.38864        1.33026
H         10.41456      -10.32469        3.54025
H         10.10033       -9.45104        5.03197
H         12.24696       -8.72303        2.97516
H         12.48318       -9.49041        4.54603
H         11.91448       -7.82026        4.46912
H          8.60357       -7.41917        5.85172
H          9.19006       -3.27064        4.75503
H          9.84597       -3.94872        2.49901
H          8.83841       -6.61311        7.86568
H          8.37169       -7.92394        9.71557
H          8.00994       -6.49860       12.40615
H          9.29144       -6.24858       11.22519
H          8.90121       -8.77691       12.66236
H          9.88776       -7.58439       13.13424
H          6.25269       -8.50574       11.83316
H          7.55808       -9.55107       11.36525
H          5.54761       -8.73751        9.42394
H          5.45030      -10.08695       10.35061
H          4.56281       -7.56253       11.21387
H          2.47063       -6.50378       10.26153
H          2.10840       -3.95758       10.58744
H          4.00399       -2.85504        9.48364
H          5.85595       -2.52053        7.82484
H          7.50466       -2.88063        6.08041
H          3.15697       -5.60636       13.13066
H          0.84810       -7.23936       11.88613
H          2.08695       -8.71684       14.40588
H         -1.08886       -5.29844       16.21550
H         -0.19893       -5.07469       13.92334
H          0.66950      -11.33439       17.42926
H          1.28399      -10.95791       15.82767
H         -1.55394      -10.30928       16.80198
H         -1.07732      -11.67169       15.78897
H         -0.92340      -10.02955       15.16582
H          3.19635       -9.64518       16.69902
H          2.73980       -9.93672       18.36963
H          3.32627       -7.23652       17.06295
H          4.22971       -8.06027       18.32614
H          2.63880       -7.38796       18.69603
H          0.37491      -10.26654       19.76045
H         -2.46052       -7.09253       20.55755
H         -1.88519       -6.00949       18.43950
H         -1.42996      -10.49443       21.46830
H         -3.74542       -5.56440       24.56249
H         -5.45296       -6.20116       26.17039
H         -3.98873      -11.51904       25.40024
H         -5.70390      -12.05329       27.06042
H         -7.02594      -10.24399       28.12495
H         -6.63708       -7.89499       27.50514
