98

N         -7.08256       -1.63117        4.25061
C         -8.39604       -1.31418        4.16882
C         -8.95648       -0.43352        5.06573
S        -10.63846       -0.25751        4.84138
C        -10.62064       -1.33664        3.51579
C         -9.35936       -1.82430        3.22552
N         -9.20120       -2.70229        2.18863
C         -8.08102       -3.30448        1.66483
C         -6.83559       -2.83422        1.55086
C         -5.72057       -3.57819        1.07863
C         -4.74332       -3.08604        0.07998
N         -3.76054       -3.88728       -0.22005
C         -3.99514       -4.95913        0.58362
C         -5.18034       -4.75777        1.38794
C         -5.36296       -5.94974        2.28563
S         -6.52493       -6.23163        3.43513
C         -4.20888       -6.82219        1.88478
C         -3.45560       -6.14177        0.84974
N         -2.41122       -6.90062        0.43492
C         -2.53008       -7.97494        1.16892
C         -3.66053       -8.00019        2.13882
C         -3.97203       -9.10694        3.00990
C         -3.97416       -8.93318        4.36239
C         -4.22436      -10.06574        5.24723
C         -4.22236      -10.17125        6.60870
C         -3.96578       -9.07970        7.65273
C         -4.76246       -9.28229        8.97837
N         -4.65249       -8.22597        9.99067
C         -2.45549       -8.92280        7.97791
N         -1.62200       -8.49967        6.85084
C         -4.48154      -11.60053        6.86306
C         -4.54598      -12.33304        7.98686
C         -4.70070      -13.84311        7.99986
C         -4.98283      -14.43445        6.62836
C         -4.94785      -13.71288        5.49673
C         -4.64937      -12.30540        5.59450
C         -4.48579      -11.38903        4.63072
C         -4.50707      -11.53019        3.19936
C         -4.25938      -10.44821        2.44436
C         -3.41293      -14.41459        8.53482
C         -3.27335      -15.12509        9.66212
C         -2.01685      -15.62985       10.12435
C         -0.67553      -15.47213        9.48966
N          0.32805      -16.06600       10.06799
C         -0.25943      -16.67137       11.13127
C         -1.67916      -16.38267       11.16994
C         -2.27753      -17.07955       12.35339
S         -3.82195      -16.99516       12.95878
C         -1.10647      -17.83570       12.88502
C          0.06682      -17.49694       12.11439
N          1.15547      -18.17014       12.56855
C          0.66077      -18.88296       13.54275
C         -0.80075      -18.73975       13.81019
N         -1.46718      -19.50843       14.71889
C         -1.70298      -19.18639       16.02567
C         -1.28274      -18.02596       16.64164
S         -1.90414      -17.86999       18.22794
C         -2.71387      -19.37253       18.11607
C         -2.48789      -20.00631       16.91258
N         -2.99887      -21.24573       16.65464
C         -2.41057      -22.25559       15.93036
C         -2.88402      -23.49191       15.74954
H         -6.50711       -1.28564        5.01183
H         -6.79717       -2.56105        3.95486
H         -8.46325        0.09238        5.87002
H        -11.55049       -1.55853        3.01233
H        -10.05085       -3.04135        1.73897
H         -8.32187       -4.29453        1.27789
H         -6.62982       -1.80200        1.82650
H         -4.88819       -2.08773       -0.36339
H         -1.85304       -8.83629        1.10050
H         -3.75231       -7.97247        4.81557
H         -4.31731       -8.12824        7.22827
H         -4.39110      -10.15911        9.50064
H         -5.82362       -9.43948        8.75511
H         -3.68295       -8.13950       10.29582
H         -5.15118       -8.53669       10.82781
H         -2.05970       -9.86063        8.38522
H         -2.31976       -8.15953        8.75069
H         -1.65822       -9.20542        6.11705
H         -0.65021       -8.45578        7.15729
H         -4.42454      -11.92366        8.97375
H         -5.54598      -14.08822        8.65382
H         -5.21675      -15.49745        6.58813
H         -5.14695      -14.15435        4.53088
H         -4.71282      -12.49890        2.75349
H         -4.27632      -10.54486        1.36035
H         -2.54460      -14.17033        7.92471
H         -4.15322      -15.35000       10.26182
H         -0.57041      -14.87745        8.57056
H          1.25023      -19.58189       14.15416
H         -2.25309      -20.00530       14.29250
H         -0.68187      -17.22725       16.23099
H         -3.28449      -19.73068       18.96096
H         -3.73377      -21.59846       17.26949
H         -1.44124      -21.99955       15.50610
H         -3.83763      -23.81136       16.15514
H         -2.31441      -24.21857       15.17852
