103

C         -4.52428        1.50875       -0.00950
S         -4.22066        0.15930       -1.02084
C         -4.72429       -0.99049        0.18596
C         -5.14859       -0.31476        1.31841
C         -5.00930        1.11320        1.20847
C         -5.34834        2.02224        2.21040
C         -5.83894        1.38315        3.37873
C         -6.21386        2.26234        4.49382
C         -7.46221        2.72439        4.63108
C         -5.99348       -0.04961        3.50298
C         -6.51184       -0.65924        4.78496
C         -5.67656       -0.94624        2.45029
C         -4.67159       -2.37453       -0.16731
C         -4.30874       -3.33648        0.70080
C         -4.26883       -4.80485        0.46649
C         -4.33536       -5.46888       -0.77092
C         -4.30346       -6.90963       -0.90300
N         -4.40666       -7.44373       -2.14202
C         -4.48320       -6.62835       -3.22827
C         -4.49438       -5.27393       -3.09723
N         -4.42703       -4.70082       -1.87470
C         -4.57409       -4.36149       -4.19959
N         -4.64136       -3.62535       -5.09312
C         -4.51279       -7.28360       -4.49642
N         -4.51100       -7.80253       -5.53373
C         -4.15839       -7.79123        0.20228
C         -4.04118       -7.14022        1.47674
C         -4.11633       -5.64021        1.60820
N         -4.02778       -5.22606        2.88661
S         -3.80891       -6.56194        3.82864
N         -3.84082       -7.73376        2.66849
C         -4.07513       -9.28829        0.10863
C         -3.46827       -9.96227       -0.96619
C         -3.24728      -11.37298       -1.05110
C         -3.63281      -12.10093        0.11594
C         -4.39178      -11.51851        1.13913
C         -4.60935      -10.11606        1.10205
C         -4.92187      -12.50064        2.07179
C         -4.42342      -13.77365        1.81710
S         -3.24068      -13.72590        0.58359
C         -4.85825      -14.90177        2.54066
C         -5.81473      -14.73535        3.54418
C         -6.30165      -13.47328        3.84790
C         -5.85614      -12.35759        3.13261
C         -2.67173      -12.01535       -2.28774
C         -3.08533      -13.26378       -2.82234
C         -2.43337      -13.91847       -3.93932
N         -2.74647      -15.21035       -4.19971
C         -3.74234      -15.82733       -3.51784
C         -4.46604      -15.14840       -2.57470
N         -4.14500      -13.87439       -2.24795
C         -5.54129      -15.74326       -1.83816
N         -6.40770      -16.24893       -1.25055
C         -3.97250      -17.20453       -3.83393
N         -4.16990      -18.32595       -4.05872
C         -1.49786      -13.25835       -4.78295
C         -1.16593      -11.93605       -4.37945
C         -1.68958      -11.34759       -3.08043
N         -1.11426      -10.16143       -2.80106
S         -0.19054       -9.72759       -4.09246
N         -0.42094      -11.04356       -5.05165
C         -0.94034      -13.85044       -6.05354
S         -2.02838      -14.80645       -7.03085
C         -0.83376      -15.31081       -8.16081
C          0.31192      -14.57114       -7.94660
C          0.27674      -13.77717       -6.72940
C          1.38922      -13.01674       -6.32404
C          2.48639      -13.00037       -7.23466
C          3.59259      -12.05016       -6.97165
C          4.03892      -11.69788       -5.75877
C          2.50442      -13.80101       -8.43514
C          3.68454      -13.76818       -9.38456
C          1.41580      -14.63062       -8.81228
C         -1.12997      -16.27602       -9.17525
C         -1.87805      -17.36596       -8.95488
H         -4.33739        2.50966       -0.37473
H         -5.25299        3.09696        2.12291
H         -5.43009        2.51467        5.20138
H         -8.24628        2.46834        3.92437
H         -7.72511        3.36775        5.46380
H         -5.90563       -0.33138        5.63519
H         -6.45462       -1.75342        4.75612
H         -7.55896       -0.38543        4.94197
H         -5.83670       -2.01175        2.54541
H         -4.93387       -2.59879       -1.19415
H         -4.01281       -3.03647        1.70561
H         -3.12790       -9.35938       -1.80360
H         -5.19239       -9.68803        1.91442
H         -4.47300      -15.89126        2.31109
H         -6.17771      -15.60307        4.09041
H         -7.04313      -13.35099        4.63383
H         -6.26410      -11.37867        3.37119
H          1.42008      -12.43360       -5.41854
H          4.05586      -11.59811       -7.84611
H          3.62842      -12.10762       -4.84280
H          4.84572      -10.97853       -5.66004
H          4.63379      -13.73282       -8.84107
H          3.60909      -12.90060      -10.04809
H          3.71827      -14.67164      -10.00410
H          1.44658      -15.22882       -9.71528
H         -0.67604      -16.14982      -10.15468
H         -2.32831      -17.59140       -7.99300
H         -2.04324      -18.08707       -9.75002
