126

C         -3.79324       -4.63610       -4.51456
C         -3.52233       -3.34800       -4.95206
O         -2.23051       -3.04150       -5.28795
C         -2.14162       -2.34313       -6.53688
C         -4.54348       -2.39970       -4.97518
C         -5.87578       -2.73386       -4.67629
C         -6.16546       -4.09235       -4.43323
C         -5.11489       -5.01125       -4.27001
O         -7.41001       -4.68067       -4.30347
C         -8.42841       -4.17180       -5.16660
C         -9.40630       -5.24660       -5.59691
C         -6.86026       -1.62514       -4.64923
C         -6.61157       -0.34940       -4.33134
C         -7.75867        0.58714       -4.33654
N         -8.99181        0.24247       -4.04777
C         -9.68116        1.41713       -4.14636
C         -8.79054        2.46732       -4.54516
C         -9.54554        3.73736       -4.62866
O         -9.15093        4.84367       -4.92221
C        -10.91524        3.30687       -4.25842
C        -10.91487        1.88639       -3.99436
N        -12.15653        1.48083       -3.65041
C        -12.84744        2.58445       -3.70273
C        -12.12793        3.81577       -4.08558
C         -7.54590        2.03258       -4.67363
C         -6.39473        2.77926       -5.05267
C         -5.26361        2.81325       -4.33542
C         -4.11023        3.63963       -4.63919
C         -2.92083        3.01301       -4.66209
C         -1.67358        3.73756       -4.75089
C         -0.37234        3.33036       -4.66958
C          0.21396        1.90462       -4.44146
C          1.57852        1.93552       -3.70194
N          2.25951        0.67869       -3.36823
C         -0.68733        0.88429       -3.68336
N         -1.64017        0.16753       -4.53053
C          0.38942        4.60790       -4.81297
C          1.69741        4.91897       -4.79643
C          2.25572        6.33287       -4.90312
C          1.18729        7.39266       -5.08309
C         -0.12726        7.10948       -5.10411
C         -0.53494        5.73630       -4.96572
C         -1.77181        5.20579       -4.92062
C         -3.06932        5.85764       -4.95456
C         -4.17523        5.09456       -4.80468
C          3.29268        6.37252       -6.00457
C          4.61035        6.19766       -5.79072
C          5.55188        6.09612       -6.93141
N          5.37961        6.67751       -8.09136
C          6.45747        6.27453       -8.80519
C          7.29545        5.40385       -8.01809
C          8.44653        4.96616       -8.85381
O          9.34899        4.20622       -8.57762
C          8.19942        5.67585      -10.13514
C          6.97912        6.43510      -10.02051
N          6.72696        7.09312      -11.17777
C          7.73459        6.74976      -11.93118
C          8.73363        5.83285      -11.33927
C          6.80057        5.26163       -6.79271
C          7.25780        4.51705       -5.65594
C          7.60666        3.23173       -5.72047
C          7.96907        2.35960       -4.58738
C          7.15023        1.84488       -3.57880
O          5.83677        2.08312       -3.30292
C          5.11319        2.94160       -4.14894
C          7.68374        0.90514       -2.67837
C          8.97304        0.36407       -2.82930
C          9.70638        0.75656       -3.95069
C          9.27049        1.86319       -4.67706
O         10.89207        0.17585       -4.31412
C         10.95874       -0.38538       -5.65347
C         10.54497        0.45395       -6.86953
C          9.46452       -0.58439       -1.81011
C          9.21875       -0.44068       -0.49688
H         -2.98934       -5.36131       -4.40944
H         -1.08247       -2.17656       -6.74996
H         -2.61854       -1.35824       -6.49341
H         -2.57799       -2.92635       -7.35031
H         -4.29561       -1.37420       -5.22650
H         -5.33268       -6.03624       -3.98196
H         -8.00687       -3.72910       -6.07752
H         -9.00543       -3.43705       -4.59907
H         -8.92897       -5.96349       -6.27060
H        -10.24404       -4.78082       -6.12894
H         -9.79622       -5.79649       -4.73687
H         -7.87934       -1.86344       -4.90768
H         -5.63853        0.01875       -4.05325
H        -13.92538        2.64690       -3.48632
H        -12.49345        4.81635       -4.17480
H         -6.50030        3.41932       -5.92671
H         -5.16276        2.20494       -3.43673
H         -2.90652        1.93753       -4.59441
H          0.42225        1.49898       -5.44355
H          1.51858        2.56182       -2.80489
H          2.26427        2.37287       -4.41437
H          3.13199        0.89928       -2.88009
H          1.72960        0.12721       -2.69811
H         -1.19665        1.36701       -2.84293
H         -0.09607        0.07743       -3.24992
H         -1.12121       -0.26361       -5.29327
H         -2.03967       -0.60704       -3.99594
H          2.46827        4.18393       -4.68324
H          2.74983        6.55142       -3.94562
H          1.51098        8.42730       -5.15743
H         -0.87180        7.89027       -5.20730
H         -3.13140        6.92943       -5.07297
H         -5.15348        5.56534       -4.79151
H          2.91839        6.47212       -7.02334
H          5.00392        6.05832       -4.79263
H          7.87698        7.10179      -12.96474
H          9.62157        5.43380      -11.78677
H          7.23088        5.02271       -4.69305
H          7.66902        2.71906       -6.68618
H          5.16979        2.65788       -5.20325
H          5.38694        3.97685       -3.95286
H          4.07685        2.86306       -3.85302
H          7.04323        0.56197       -1.86627
H          9.95164        2.32708       -5.38251
H         10.42241       -1.34158       -5.67429
H         12.01878       -0.62232       -5.80166
H          9.46025        0.60756       -6.90647
H         10.81178       -0.04774       -7.80485
H         11.03874        1.43116       -6.87595
H         10.07910       -1.40970       -2.15668
H          8.64267        0.39085       -0.09460
H          9.60565       -1.14705        0.23022
