124

C         -4.54288       14.95539       -3.71709
C         -5.28915       15.87436       -3.06276
C         -4.84193       17.21262       -2.86853
N         -4.47087       18.30120       -2.72308
C         -6.60735       15.58833       -2.60378
N         -7.67688       15.34240       -2.22236
C         -3.20712       15.16398       -4.35828
C         -3.04003       14.16943       -5.32356
C         -1.88644       13.96396       -6.06466
C         -0.80975       14.84080       -5.82897
C         -0.97101       15.87321       -4.89187
C         -2.16328       16.05075       -4.13699
S          0.45498       16.84276       -4.79737
C          1.28045       15.88403       -5.94184
C          0.50430       14.85023       -6.40391
C         -4.23323       13.33270       -5.39113
O         -4.56807       12.69125       -6.36451
C         -4.96387       13.59179       -4.11636
C         -5.58836       12.65515       -3.37754
N         -5.72374       11.25895       -3.51702
C         -6.42384       10.48216       -2.60232
C         -7.45403       10.91576       -1.79199
S         -8.01028        9.70422       -0.72097
C         -6.93000        8.55564       -1.37766
C         -6.17607        9.06784       -2.41260
N         -5.31384        8.36592       -3.22440
C         -5.05604        9.03241       -4.51090
C         -4.70276       10.49893       -4.29273
C         -4.87474        7.06309       -3.06520
C         -4.68772        6.33053       -1.95980
C         -4.17937        4.96984       -1.95334
C         -3.24841        4.60287       -2.86760
C         -2.78386        3.24037       -2.93563
C         -1.96332        2.62112       -3.82388
C         -1.12914        3.16579       -4.97653
C         -1.93345        3.17020       -6.30136
N         -3.11340        4.03702       -6.30333
C         -0.45192        4.53724       -4.67755
N          0.40235        5.06224       -5.75218
C         -2.09823        1.19761       -3.48743
C         -1.73547        0.08844       -4.15027
C         -2.12546       -1.30211       -3.65344
C         -2.82205       -1.32290       -2.29743
C         -3.17690       -0.20893       -1.63959
C         -2.90324        1.04738       -2.27522
C         -3.33336        2.27387       -1.96577
C         -4.21806        2.71729       -0.91817
C         -4.61076        4.00439       -0.92418
C         -0.92412       -2.20706       -3.67534
C         -0.06742       -2.40198       -2.65936
N          1.05443       -3.22331       -2.60963
C          1.89397       -3.34266       -1.51103
C          1.71520       -2.78437       -0.26027
S          3.00595       -3.13387        0.81477
C          3.82537       -4.04715       -0.37408
C          3.12264       -4.10061       -1.55664
N          3.51524       -4.79418       -2.67450
C          2.41975       -5.07774       -3.61966
C          1.56452       -3.83514       -3.86876
C          4.83253       -4.85832       -3.10034
C          5.42775       -4.01224       -3.95345
C          6.79808       -4.15141       -4.38746
C          7.47492       -3.35872       -5.23091
C          7.14448       -2.15151       -6.00009
C          6.03408       -1.92371       -6.74192
C          5.84688       -0.75442       -7.52222
N          5.67713        0.21302       -8.14825
C          5.02014       -2.91364       -6.90965
N          4.18719       -3.69536       -7.06504
C          8.40057       -1.34909       -6.07148
C          9.46738       -2.18031       -5.71729
C          8.97053       -3.48734       -5.25061
O          9.64593       -4.43017       -4.89785
C         10.79835       -1.78336       -5.74617
C         11.07836       -0.45419       -6.14020
C         10.00828        0.39798       -6.44982
C          8.65700       -0.02650       -6.41078
S         10.56702        1.97579       -6.87010
C         12.20009        1.53465       -6.67247
C         12.33642        0.22470       -6.27854
H         -1.81468       13.14035       -6.76913
H         -2.20777       16.84654       -3.40164
H          2.29723       16.12279       -6.22152
H          0.85584       14.12749       -7.13001
H         -5.99271       12.96280       -2.41707
H         -7.92088       11.88950       -1.75989
H         -6.95275        7.54701       -0.99005
H         -5.93709        8.94149       -5.16002
H         -4.21543        8.56405       -5.04130
H         -4.59868       10.88487       -5.29651
H         -3.73053       10.58816       -3.78867
H         -4.62165        6.62526       -4.03083
H         -4.91453        6.74093       -0.98403
H         -2.91911        5.29487       -3.62342
H         -0.29104        2.46781       -5.12224
H         -2.25249        2.14869       -6.53517
H         -1.28802        3.47160       -7.13425
H         -3.61957        3.91873       -7.17938
H         -2.84001        5.01379       -6.24645
H          0.16107        4.45167       -3.77184
H         -1.18750        5.31569       -4.48825
H         -0.12324        5.11216       -6.62284
H          0.63725        6.03186       -5.53116
H         -1.21043        0.15380       -5.09670
H         -2.85366       -1.71053       -4.36916
H         -3.03529       -2.29274       -1.85575
H         -3.66040       -0.24377       -0.67151
H         -4.56788        2.02288       -0.16533
H         -5.29550        4.36382       -0.16243
H         -0.78922       -2.72306       -4.61927
H         -0.23769       -1.84609       -1.74031
H          0.90064       -2.17605        0.10241
H          4.76302       -4.52902       -0.13831
H          1.79310       -5.87328       -3.19379
H          2.80389       -5.45737       -4.57393
H          0.73532       -4.15402       -4.50874
H          2.13887       -3.07802       -4.41697
H          5.35158       -5.70997       -2.66752
H          4.84762       -3.15989       -4.28967
H          7.34762       -4.95792       -3.89700
H         11.59090       -2.47098       -5.46395
H          7.87528        0.68953       -6.64115
H         12.98462        2.25760       -6.85033
H         13.29937       -0.23659       -6.09566
