96

C          5.22937       -0.51303       -4.26233
C          5.87418        0.69495       -4.49442
C          5.32968        1.86475       -3.98248
C          4.16614        1.83590       -3.18791
C          3.54399        0.59556       -2.91617
C          4.06847       -0.57890       -3.50739
N          3.47444       -1.77833       -3.36487
C          2.36294       -1.84350       -2.59186
C          1.89859       -0.72500       -1.91221
N          2.46581        0.49090       -2.10106
C          0.74675       -0.76899       -0.95695
C          1.70286       -3.18327       -2.48619
C          3.57816        3.11055       -2.69466
C          2.23452        3.41932       -2.45602
C          2.07055        4.75976       -2.06204
C          3.27676        5.41819       -1.98835
S          4.59907        4.48656       -2.35133
C          3.04005        6.76624       -1.64696
C          1.68458        6.95077       -1.51349
C          0.98858        5.68637       -1.74173
C         -0.33392        5.43527       -1.67903
C         -1.27986        6.44905       -1.35624
N         -2.06744        7.26234       -1.10841
C         -0.86761        4.14616       -1.94633
N         -1.32396        3.09951       -2.17280
C          1.37131        8.29547       -1.25294
C          2.51462        9.09266       -1.12550
S          3.95471        8.13522       -1.42971
C          2.68434       10.48672       -0.82765
C          1.83410       11.24564       -0.11433
C          2.06606       12.63700        0.22095
C          1.17349       13.14635        1.08727
C          0.16870       12.19014        1.51673
S          0.34761       10.70304        0.60645
C         -0.72555       12.31580        2.51507
C         -0.90529       13.44805        3.40193
C         -1.62948       13.16084        4.49641
C         -2.06081       11.77841        4.55325
S         -1.78521       10.99660        3.02122
C         -2.52431       11.16327        5.65313
C         -2.76033        9.75688        5.70007
C         -3.91660        9.03604        5.39665
C         -3.70679        7.64668        5.54428
C         -2.41680        7.36879        5.94001
S         -1.45854        8.70111        6.18628
C         -2.25770        5.97087        6.03863
C         -3.45133        5.36441        5.72493
C         -4.43904        6.38699        5.38172
C         -5.71622        6.21116        4.99150
C         -6.29163        4.91657        4.85062
N         -6.77889        3.87046        4.73298
C         -6.56450        7.31311        4.70405
N         -7.26605        8.21379        4.48197
C         -3.35826        3.96140        5.82204
C         -2.05693        3.54962        6.13211
S         -1.01491        4.92826        6.38621
C         -1.49347        2.17445        6.18411
C         -0.46699        1.86267        7.09617
C          0.12396        0.60464        7.09948
C         -0.30767       -0.35488        6.19057
C         -1.32117       -0.08643        5.28330
C         -1.94503        1.18442        5.28242
N         -2.93841        1.42853        4.39497
C         -3.28623        0.46174        3.51506
C         -2.63181       -0.76296        3.50300
N         -1.65890       -1.04844        4.40316
C         -2.91282       -1.80275        2.46258
C         -4.38715        0.80430        2.56022
H          5.64065       -1.42955       -4.67821
H          6.78561        0.72673       -5.08622
H          5.82450        2.80337       -4.22225
H          0.76105       -1.68653       -0.36050
H         -0.20127       -0.70036       -1.49735
H          0.80785        0.06963       -0.25429
H          1.99913       -3.82375       -3.32407
H          0.61284       -3.08851       -2.52299
H          1.99327       -3.67566       -1.55403
H          1.43799        2.69916       -2.59826
H          0.36636        8.68167       -1.15877
H          3.60975       10.94556       -1.17121
H          2.90354       13.19643       -0.17445
H          1.22137       14.15886        1.46167
H         -0.46218       14.41628        3.21796
H         -1.82798       13.86639        5.29097
H         -2.63274       11.71325        6.58255
H         -4.82801        9.52094        5.06901
H         -4.15695        3.25473        5.62816
H         -0.10738        2.60261        7.80816
H          0.92957        0.37729        7.79334
H          0.16534       -1.33439        6.17777
H         -2.66566       -1.41103        1.47025
H         -3.96404       -2.10348        2.48291
H         -2.30036       -2.69492        2.62891
H         -4.75475        1.81990        2.74417
H         -5.23030        0.11778        2.68361
H         -4.02626        0.76096        1.52879
