120

C        -13.71083        0.80693       -4.28190
C        -13.56933        0.66541       -5.65965
F        -13.38192        1.75703       -6.41354
C        -13.61233       -0.59017       -6.24873
F        -13.45999       -0.71982       -7.57340
C        -13.80711       -1.72736       -5.47290
C        -13.95733       -1.61073       -4.08371
C        -13.89861       -0.32186       -3.47036
C        -14.00098       -0.19292       -2.06724
C        -14.15748       -1.32622       -1.28161
C        -14.21785       -2.57553       -1.91961
C        -14.13345       -2.74753       -3.29190
C        -14.23630       -3.65860       -0.92898
O        -14.43138       -4.83146       -1.16656
C        -13.93948       -2.99101        0.37871
C        -14.19201       -1.54882        0.19460
C        -14.52995       -0.65647        1.15202
C        -14.66093       -1.02367        2.52617
N        -14.74905       -1.34153        3.64189
C        -14.82391        0.70458        0.85771
N        -15.05374        1.81255        0.60774
C        -13.30041       -3.59919        1.39252
C        -12.89633       -4.98273        1.44380
C        -13.36331       -5.79844        2.41383
C        -12.93253       -7.15578        2.16289
C        -13.18459       -8.23211        3.04377
N        -13.35972       -9.09551        3.79830
C        -12.22844       -7.20750        1.01885
C        -12.05337       -5.82745        0.55442
C        -11.17908       -5.42415       -0.39421
C        -10.32132       -6.24622       -1.27836
C         -9.52642       -5.38155       -1.94942
C         -9.81036       -4.02462       -1.53938
C        -10.79650       -4.03183       -0.63278
C         -9.11338       -2.88039       -1.99112
N         -8.55054       -1.92887       -2.34213
C        -10.30278       -7.66388       -1.55516
C         -9.19516       -8.41403       -1.43640
C         -9.13242       -9.82674       -1.71256
C         -8.78971      -10.70758       -0.74926
C         -8.90245      -12.04322       -1.27999
C         -8.81306      -13.29497       -0.42236
N         -8.73889      -14.33340        0.28911
C         -9.30620      -12.04192       -2.54946
C         -9.39281      -10.64426       -2.92496
C         -9.52816      -10.23709       -4.19198
C         -9.65285      -11.06182       -5.40718
C         -9.47882      -10.24112       -6.45751
C         -9.31099       -8.92527       -5.94016
C         -9.38148       -8.87053       -4.61444
C         -9.22713       -7.68285       -6.81181
N         -9.15756       -6.65216       -7.53491
C        -10.07976      -12.40641       -5.61946
C         -9.37811      -13.27569       -6.36107
C         -9.85768      -14.59570       -6.67247
C        -10.64218      -15.26940       -5.80462
C        -11.02161      -16.54057       -6.34779
C        -11.75066      -17.49953       -5.62001
N        -12.33021      -18.24726       -4.95058
C        -10.50818      -16.67418       -7.58686
C         -9.69853      -15.47255       -7.86318
C         -8.92016      -15.29887       -8.95621
C         -8.85854      -16.15435      -10.16591
C         -7.74702      -15.78500      -10.84037
C         -7.10451      -14.67963      -10.16138
C         -7.83528      -14.32614       -9.09370
C         -5.89322      -14.07344      -10.57120
N         -4.89018      -13.57946      -10.88180
C         -9.85770      -17.01812      -10.75760
C         -9.61271      -18.26571      -11.18788
C        -10.63538      -19.09401      -11.79217
C        -11.08232      -20.26564      -11.31773
C        -12.33288      -20.89040      -11.86652
O        -12.85860      -20.68430      -12.93893
C        -12.82181      -21.78695      -10.79479
C        -13.94311      -22.59588      -10.82515
C        -14.22297      -23.37097       -9.68973
C        -13.41409      -23.23846       -8.51728
C        -13.70663      -24.00699       -7.38353
C        -14.75252      -24.92146       -7.41539
C        -15.52486      -25.06951       -8.55903
C        -15.27641      -24.29571       -9.68956
F        -16.51567      -25.97080       -8.58858
F        -14.99471      -25.67487       -6.33439
C        -12.29785      -22.38851       -8.51711
C        -11.95753      -21.73544       -9.68919
C        -10.72155      -21.04759      -10.13378
C         -9.48508      -21.51237       -9.82958
C         -8.40064      -21.32921      -10.73597
N         -7.55171      -21.22472      -11.51881
C         -9.23035      -22.39791       -8.74295
N         -9.03545      -23.11217       -7.84965
H        -13.66084        1.80709       -3.85872
H        -13.82573       -2.69531       -5.96711
H        -13.90768        0.79638       -1.62831
H        -14.15825       -3.74811       -3.71705
H        -12.99076       -3.04508        2.27524
H        -14.02443       -5.51707        3.22247
H        -11.78682       -8.09334        0.59614
H         -8.79378       -5.63081       -2.70421
H        -11.15710       -3.16121       -0.11489
H        -11.24266       -8.10105       -1.88837
H         -8.27227       -7.96985       -1.06468
H         -8.53337      -10.48027        0.27519
H         -9.52178      -12.91503       -3.13895
H         -9.56581      -10.48101       -7.50694
H         -9.32158       -7.97579       -4.02515
H        -11.04966      -12.64987       -5.19456
H         -8.41495      -12.96707       -6.74419
H        -10.97466      -14.92740       -4.83527
H        -10.57098      -17.55292       -8.20402
H         -7.43010      -16.14360      -11.81000
H         -7.55949      -13.53503       -8.42379
H        -10.85349      -16.58499      -10.84841
H         -8.61208      -18.67612      -11.09235
H        -11.13193      -18.65699      -12.66181
H        -14.55126      -22.64925      -11.72442
H        -13.11058      -23.93107       -6.47717
H        -15.89793      -24.44567      -10.56824
H        -11.68643      -22.30181       -7.62219
