140

C          1.97214        4.00895        5.10478
C          2.73971        4.77504        4.29781
C          3.44231        5.91854        4.77754
N          3.97609        6.86303        5.18360
C          3.02809        4.36496        2.96204
N          3.34567        3.98572        1.91228
C          2.05379        3.98073        6.57831
C          1.94956        2.63235        6.96411
C          2.12969        2.21448        8.26719
C          2.33700        3.19712        9.24434
C          2.32880        4.57959        8.88632
C          2.19988        4.96449        7.53981
C          2.45104        5.54592        9.89417
C          2.60580        5.16693       11.22795
C          2.65685        3.81834       11.57016
C          2.52308        2.83905       10.58537
C          1.51609        1.80238        5.81313
O          1.34073        0.60395        5.79347
C          1.25194        2.79624        4.72297
C          0.23562        2.61190        3.86202
C         -0.42196        3.66072        3.05414
C         -0.61625        4.96030        3.55420
C         -1.24045        5.90961        2.75606
C         -1.75323        5.57042        1.49152
C         -1.60640        4.28735        0.99922
C         -0.93923        3.33538        1.78360
C         -2.37659        6.73330        0.90264
C         -2.24358        7.82735        1.77698
C         -1.48611        7.39651        3.04040
C         -2.33710        7.58613        4.32704
C         -3.63130        6.77003        4.39235
C         -0.14034        8.17541        3.16069
C          0.85167        7.97515        2.00918
C         -2.73299        9.08560        1.43393
C         -3.37151        9.27582        0.19025
C         -3.50319        8.14883       -0.66199
C         -3.01793        6.88240       -0.31011
C         -3.88555       10.61892       -0.23595
C         -4.96664       10.71252       -1.03866
C         -5.50072       11.97734       -1.46823
C         -4.92455       13.26003       -1.05452
C         -3.86122       13.37926       -0.26346
S         -2.98778       12.01500        0.36720
C         -5.70199       14.26722       -1.66041
C         -6.69416       13.68892       -2.41312
C         -7.53169       14.61869       -3.04771
C         -7.11281       15.90680       -2.74327
S         -5.72608       15.93606       -1.69596
C         -6.55929       12.25974       -2.28061
C         -7.41640       11.31995       -2.94825
C         -8.19491       10.43481       -2.30818
C         -9.05898        9.47763       -3.00632
C         -9.33550        8.25648       -2.38343
C        -10.11271        7.32161       -3.05068
C        -10.67212        7.62017       -4.31298
C        -10.44501        8.84099       -4.91843
C         -9.63452        9.76596       -4.25954
C        -11.43946        6.49132       -4.77740
C        -11.33562        5.45834       -3.83290
C        -10.51501        5.91022       -2.60453
C         -9.27794        4.97359       -2.44827
C         -8.33960        5.23994       -1.27083
C        -11.39685        5.92452       -1.32413
C        -12.58464        6.89011       -1.33402
C        -11.93176        4.22865       -4.06710
C        -12.73425        4.04438       -5.20477
C        -12.83507        5.09692       -6.13897
C        -12.18275        6.31973       -5.93442
C        -13.39536        2.75735       -5.51565
C        -13.85771        1.82037       -4.66895
C        -14.30775        0.43865       -4.96612
C        -15.02130        0.03629       -6.04332
C        -15.48880       -1.30309       -6.19694
N        -15.86133       -2.38756       -6.31957
C        -15.41758        0.93429       -7.07713
N        -15.73656        1.66077       -7.92439
C        -13.95549       -0.37710       -3.76086
C        -13.58485        0.50612       -2.73891
C        -13.74947        1.88966       -3.17714
O        -13.84351        2.84289       -2.43414
C        -13.09132        0.11678       -1.50643
C        -13.00477       -1.24860       -1.24297
C        -13.44249       -2.18398       -2.22336
C        -13.89453       -1.73731       -3.49010
C        -13.41104       -3.54930       -1.90065
C        -12.93730       -3.98383       -0.65944
C        -12.46675       -3.06406        0.27334
C        -12.49930       -1.70191       -0.01665
H          2.07745        1.15797        8.51274
H          2.20214        6.01858        7.27517
H          2.42262        6.60683        9.65219
H          2.69134        5.92703       12.00061
H          2.79212        3.52648       12.60854
H          2.55940        1.79159       10.87784
H         -0.24774        1.63409        3.81881
H         -0.30097        5.24274        4.55224
H         -1.98456        4.02333        0.01733
H         -0.82002        2.33182        1.37974
H         -2.59647        8.64559        4.44796
H         -1.73631        7.31547        5.20587
H         -4.29409        6.98699        3.54992
H         -4.17510        7.00577        5.31326
H         -3.43190        5.69360        4.40668
H          0.37095        7.88872        4.08892
H         -0.34334        9.25165        3.24256
H          1.15680        6.92884        1.91274
H          1.76010        8.55948        2.19071
H          0.43702        8.30299        1.05115
H         -2.60363        9.90827        2.13121
H         -3.98072        8.23866       -1.63567
H         -3.13773        6.04444       -0.98820
H         -5.49163        9.82974       -1.38708
H         -3.48971       14.36139        0.00927
H         -8.38290       14.39198       -3.67664
H         -7.54549       16.84094       -3.07406
H         -7.40385       11.38280       -4.03304
H         -8.19315       10.38164       -1.22106
H         -8.93873        8.04343       -1.39788
H        -10.87493        9.08334       -5.88355
H         -9.46134       10.72586       -4.73781
H         -8.67845        5.00239       -3.36808
H         -9.61849        3.93462       -2.34411
H         -7.94508        6.25508       -1.26178
H         -7.46769        4.58035       -1.33521
H         -8.82686        5.04608       -0.31103
H        -10.78720        6.18818       -0.45201
H        -11.78339        4.91404       -1.13638
H        -12.24792        7.92927       -1.25882
H        -13.22781        6.69688       -0.46847
H        -13.20089        6.78842       -2.23127
H        -11.76545        3.43855       -3.34807
H        -13.42382        4.97245       -7.04768
H        -12.26835        7.11296       -6.67046
H        -13.42845        2.57603       -6.58872
H        -12.77860        0.86578       -0.78410
H        -14.17194       -2.48133       -4.23002
H        -13.76899       -4.29245       -2.61062
H        -12.93438       -5.04461       -0.42113
H        -12.08393       -3.40538        1.23205
H        -12.13190       -0.99708        0.72695
