93

C         -7.21436       -3.25110       -0.14198
C         -7.62567       -2.81406        1.12658
C         -7.11543       -1.64136        1.74381
C         -6.14094       -0.79613        1.15444
C         -5.71189       -1.22658       -0.12916
C         -6.24859       -2.43508       -0.75746
N         -5.67279       -2.58581       -1.95538
O         -4.80068       -1.52250       -2.08996
N         -4.81765       -0.69928       -0.98040
C         -5.64940        0.44794        1.76155
C         -5.17825        1.60691        1.14050
C         -4.89448        2.61772        2.08259
C         -5.13226        2.20312        3.37485
S         -5.64164        0.62869        3.50108
C         -4.89858        3.28439        4.25968
C         -4.51358        4.37263        3.51050
C         -4.45798        4.01073        2.09162
C         -4.08637        4.77377        1.04323
C         -3.65720        6.11646        1.21094
N         -3.30299        7.21606        1.34651
C         -4.08358        4.27658       -0.29165
N         -4.08561        3.88554       -1.38394
C         -4.30395        5.49982        4.32220
C         -4.52685        5.22741        5.68308
S         -4.98776        3.57040        5.90433
C         -4.27631        6.16218        6.77159
C         -3.90582        6.00450        8.12992
C         -2.97913        7.09018        8.55156
C         -2.71879        7.77027        7.34758
S         -4.09055        7.85802        6.38846
C         -1.38483        7.43691        6.95907
C         -0.80248        6.71813        7.97211
C         -1.63839        6.92520        9.21228
C         -1.11538        7.71410       10.25379
C          0.17637        8.23833        9.64800
N          1.24797        8.67322        9.14544
C         -1.86393        8.35009       11.26038
N         -2.47787        8.84111       12.11322
C          0.49533        6.25717        7.62350
C          0.94532        6.91028        6.45785
S         -0.42950        7.59015        5.61530
C          2.32644        7.13734        6.11347
C          2.85952        7.75545        5.04488
C          2.23914        8.24434        3.84224
C          3.08497        8.79206        2.96453
C          4.46381        8.83950        3.40552
S          4.59918        8.12165        5.00543
C          5.46470        9.39207        2.69373
C          5.35209        9.82313        1.31023
C          6.41034       10.50687        0.86478
C          7.40384       10.73463        1.88810
S          7.07529        9.76889        3.30580
C          8.36551       11.65355        1.73019
C          9.35030       12.10688        2.68953
C         10.23710       13.09384        2.48597
C         11.42379       13.19940        3.40377
O         11.54655       12.76190        4.52781
C         12.46842       13.88008        2.61167
C         13.78232       14.10443        2.99113
C         14.64819       14.69643        2.05980
C         14.17698       14.99632        0.74575
C         15.05416       15.56151       -0.19066
C         16.36590       15.84979        0.16773
C         16.82118       15.57728        1.44967
C         15.97715       14.99835        2.39379
F         18.08266       15.87198        1.79156
F         17.18498       16.40160       -0.73776
C         12.83800       14.74548        0.39858
C         11.96668       14.23753        1.35174
C         10.49849       13.99685        1.35113
C          9.60378       14.73086        0.64856
C          8.20720       14.74244        0.93443
N          7.06482       14.78263        1.12948
C          9.99117       15.63974       -0.37932
N         10.31117       16.36126       -1.23042
H         -7.61034       -4.14121       -0.61384
H         -8.37805       -3.39519        1.66135
H         -7.52552       -1.38450        2.72143
H         -5.10130        1.70266        0.06334
H         -3.97580        6.46700        3.96013
H         -3.93412        5.04262        8.62937
H          1.17672        5.75656        8.30348
H          3.02637        6.84798        6.89984
H          1.18609        8.19345        3.62947
H          2.74177        9.22676        2.03715
H          4.49926        9.60362        0.68465
H          6.48533       10.90831       -0.13662
H          8.40022       12.13076        0.75559
H          9.40511       11.54437        3.62375
H         14.11446       13.82413        3.98751
H         14.72946       15.79824       -1.20099
H         16.36958       14.79846        3.38722
H         12.50805       14.96485       -0.61280
