98

C        -13.24404       -1.32291       10.75400
C        -14.23234       -0.98776       11.62024
C        -15.10785       -1.94829       12.20330
N        -15.82724       -2.72353       12.67754
C        -14.44783        0.35286       12.05853
N        -14.62211        1.44534       12.40378
C        -12.85691       -2.70412       10.33308
C        -11.58063       -2.65215        9.76650
C        -10.91294       -3.75242        9.24332
C        -11.57564       -4.99778        9.27961
C        -12.85868       -5.06229        9.83987
C        -13.52179       -3.92441       10.36817
S        -13.48306       -6.67062        9.78014
C        -12.08455       -7.26882        9.01296
C        -11.15244       -6.28185        8.79831
C        -11.08071       -1.27250        9.72928
O         -9.95659       -0.94406        9.41505
C        -12.23616       -0.41590       10.15685
C        -12.35367        0.88067        9.83092
C        -11.37049        1.60356        9.10836
C        -10.28631        2.33112        9.59649
C         -9.69258        3.09158        8.56885
C        -10.27541        2.83744        7.34729
S        -11.53359        1.75548        7.38281
C         -9.73222        3.71831        6.39170
C         -8.84078        4.55784        7.02057
C         -8.70285        4.15735        8.41961
C         -7.86695        4.65468        9.35216
C         -7.84713        4.15309       10.67920
N         -7.83589        3.74945       11.77006
C         -6.95800        5.70638        9.05068
N         -6.22527        6.57337        8.80849
C         -8.43448        5.60564        6.17354
C         -9.02989        5.48782        4.91458
S         -9.97492        4.03024        4.78067
C         -8.99747        6.45049        3.73717
C        -10.15822        7.44692        3.79775
N        -11.38486        7.09889        4.20879
S        -12.29398        8.50049        4.15285
N        -11.14704        9.57199        3.57099
C        -10.04307        8.83528        3.40099
C         -8.78218        9.43286        2.83059
C         -7.59444        8.62501        3.31598
C         -7.68201        7.21682        3.65478
N         -6.49631        6.62225        3.83949
S         -5.36313        7.84827        3.71704
N         -6.36231        9.14432        3.35474
C         -8.85346        9.44567        1.29952
C         -9.34607       10.44440        0.45098
C         -9.14483       10.09757       -0.90634
C         -8.54566        8.86549       -1.02600
S         -8.27986        8.06733        0.39022
C         -8.26655        8.60449       -2.37724
C         -8.69248        9.67301       -3.12613
C         -9.33664       10.65402       -2.24713
C        -10.00043       11.77159       -2.60030
C        -10.60751       12.61530       -1.63124
N        -11.09796       13.30235       -0.83518
C        -10.16102       12.13058       -3.96687
N        -10.27825       12.38393       -5.09391
C         -8.31345        9.52465       -4.47470
C         -7.65421        8.30873       -4.69593
S         -7.49748        7.40033       -3.21790
C         -7.06008        7.77759       -5.87680
C         -7.52661        7.98602       -7.11536
C         -8.69802        8.68239       -7.65767
C         -9.98646        8.55730       -7.25363
C        -11.06363        9.23461       -7.89293
N        -11.94024        9.79531       -8.40594
C        -10.37662        7.66321       -6.21199
N        -10.72219        6.93241       -5.37947
C         -8.24888        9.30493       -8.93015
C         -7.05203        8.68983       -9.31638
C         -6.57416        7.78276       -8.25540
O         -5.57215        7.09333       -8.28344
C         -6.38999        8.97879      -10.50268
C         -6.95912        9.96104      -11.34677
C         -8.12794       10.61670      -10.93308
C         -8.78432       10.31405       -9.71688
S         -8.62683       11.79905      -12.08614
C         -7.33842       11.42852      -13.13547
C         -6.52303       10.44601      -12.62576
H         -9.92745       -3.64386        8.79979
H        -14.52662       -4.04510       10.75586
H        -12.01099       -8.31582        8.75163
H        -10.20041       -6.46574        8.31414
H        -13.25832        1.44245       10.03668
H        -10.02956        2.35190       10.64847
H         -7.80174        6.44250        6.44524
H         -9.10464        5.88467        2.79994
H         -8.67479       10.46513        3.19200
H         -9.78112       11.36524        0.82505
H         -8.46653       10.25817       -5.25518
H         -6.10579        7.26140       -5.75324
H         -5.46456        8.47253      -10.76135
H         -9.67089       10.87436       -9.44027
H         -7.23653       11.95256      -14.07586
H         -5.64659       10.08082      -13.14735
