86

C          1.99830       -0.94797       -5.77860
S          1.09732       -2.37888       -5.43358
C          0.03476       -2.16261       -6.80848
C          0.38383       -0.99424       -7.43713
C          1.46920       -0.32763       -6.87072
C          1.72200        0.85043       -7.64007
O          2.58929        1.68813       -7.43618
O          0.78656        0.88427       -8.65971
C         -0.03695       -0.22139       -8.56819
O         -0.98261       -0.47387       -9.29891
C         -0.93778       -3.16562       -7.09190
C         -0.75661       -4.15801       -7.99942
N          0.38216       -4.30477       -8.88082
O          1.48328       -3.87044       -8.51974
O          0.18069       -4.90064       -9.94786
C         -1.80284       -5.15399       -7.92116
C         -2.65330       -4.81108       -6.94188
C         -2.18896       -3.55268       -6.34844
C         -2.80870       -2.89578       -5.33924
C         -2.54696       -1.49393       -5.00209
C         -3.35625       -1.15300       -3.99080
C         -4.12432       -2.31322       -3.60530
N         -4.95085       -2.29526       -2.41744
O         -5.57300       -1.24783       -2.19497
O         -4.95376       -3.28186       -1.67002
C         -3.89375       -3.38106       -4.40592
C         -4.40632       -4.73535       -4.23897
C         -5.61872       -5.06369       -3.75948
C         -6.08928       -6.40325       -3.60033
N         -6.45523       -6.99020       -2.38734
C         -6.39149       -6.40847       -1.06138
C         -5.04236       -6.61218       -0.39187
C         -6.92715       -8.30369       -2.57410
O         -7.31518       -9.11307       -1.75716
C         -6.85436       -8.46851       -4.03621
C         -6.33147       -7.25833       -4.59367
C         -6.30067       -7.39459       -6.05548
O         -5.90980       -6.57542       -6.86161
N         -6.82760       -8.68715       -6.24985
C         -6.97806       -9.25558       -7.57343
C         -5.72631       -9.98613       -8.02637
C         -7.11550       -9.31304       -5.03380
C         -7.68985      -10.61986       -4.92843
C         -7.48142      -11.44827       -3.89364
C         -8.13490      -12.70328       -3.82317
S         -7.42923      -13.97590       -2.92334
C         -8.72327      -15.06918       -3.26285
C         -9.68255      -14.43636       -4.03391
C         -9.33959      -13.09806       -4.36484
C        -10.91957      -15.02408       -4.45035
N        -11.91464      -15.49615       -4.80145
C         -8.63475      -16.37432       -2.69372
C         -9.21278      -17.45323       -3.24354
C         -9.10382      -18.73971       -2.64854
S         -9.12797      -20.15302       -3.67653
C         -8.95131      -21.24542       -2.35576
C         -8.90281      -20.54041       -1.19078
C         -8.99475      -19.15866       -1.34601
C         -8.95908      -18.58243       -0.03163
O         -9.02810      -17.40105        0.26361
O         -8.82899      -19.61697        0.87924
C         -8.79070      -20.82318        0.20629
O         -8.67992      -21.92108        0.72165
H          2.84339       -0.65768       -5.16765
H         -1.87941       -6.02042       -8.56169
H         -3.56553       -5.33983       -6.71851
H         -1.90770       -0.80261       -5.52436
H         -3.46070       -0.17864       -3.53782
H         -3.72443       -5.53659       -4.52066
H         -6.34425       -4.31268       -3.46293
H         -7.14994       -6.90311       -0.44022
H         -6.66426       -5.35086       -1.10514
H         -4.79357       -7.67657       -0.31838
H         -5.05831       -6.20044        0.62292
H         -4.24264       -6.11802       -0.95052
H         -7.18974       -8.43988       -8.27436
H         -7.84331       -9.92425       -7.59921
H         -4.85526       -9.32286       -8.01310
H         -5.85674      -10.36088       -9.04615
H         -5.50951      -10.83783       -7.37375
H         -8.33515      -10.92414       -5.74576
H         -6.82308      -11.17462       -3.07146
H         -9.97552      -12.44016       -4.94758
H         -8.03679      -16.46889       -1.78996
H         -9.75404      -17.39145       -4.18379
H         -8.90686      -22.31541       -2.51224
