92

C         -7.48481        2.28256       -4.27946
C         -7.82995        1.67192       -5.46328
C         -7.81249        0.25208       -5.35498
C         -7.46599       -0.18287       -4.08758
S         -7.16213        1.14968       -3.04046
C         -7.35376       -1.51018       -3.60314
C         -8.35187       -2.17814       -2.97763
N         -9.67704       -1.66608       -2.71876
O        -10.24250       -2.09594       -1.70307
O        -10.19430       -0.90102       -3.54125
C         -7.96203       -3.52634       -2.63609
C         -6.71805       -3.73406       -3.09092
C         -6.23502       -2.49874       -3.71848
C         -4.99930       -2.33420       -4.24765
C         -4.42946       -1.05530       -4.67084
C         -3.14904       -1.26351       -5.01141
C         -2.86259       -2.67810       -4.88484
N         -1.59316       -3.23895       -5.29428
O         -0.61155       -2.48606       -5.22387
O         -1.54692       -4.40479       -5.70296
C         -3.93019       -3.37175       -4.44414
C         -4.07420       -4.80962       -4.35681
C         -3.32747       -5.63920       -3.60992
C         -3.58630       -7.05157       -3.54795
N         -3.86784       -7.71190       -2.35267
C         -3.99884       -7.12121       -1.03701
C         -5.44430       -6.76256       -0.72584
C         -4.20926       -9.05570       -2.57357
O         -4.53024       -9.89893       -1.76429
C         -4.11620       -9.19365       -4.03428
C         -3.68222       -7.92310       -4.56004
C         -3.61396       -8.04421       -6.02666
O         -3.30424       -7.18712       -6.82695
N         -4.04694       -9.36864       -6.24696
C         -4.08040       -9.94767       -7.57691
C         -5.39664       -9.69271       -8.29001
C         -4.38713      -10.01179       -5.05375
C         -5.08056      -11.27303       -5.02535
C         -4.84635      -12.29478       -4.18566
C         -5.59882      -13.54208       -4.18104
C         -5.83852      -14.36255       -5.23504
N         -5.40548      -14.11872       -6.58881
O         -6.19599      -14.43948       -7.48671
O         -4.27766      -13.64563       -6.77634
C         -6.49691      -15.58757       -4.84987
C         -6.64692      -15.58989       -3.51793
C         -6.11671      -14.32460       -2.99754
C         -6.15333      -13.95305       -1.69765
C         -5.92526      -12.59192       -1.22925
C         -6.01445      -12.57369        0.10749
C         -6.32730      -13.91162        0.54828
N         -6.43883      -14.27140        1.94428
O         -5.77928      -13.59467        2.74658
O         -7.20520      -15.18990        2.26331
C         -6.45096      -14.77403       -0.48634
C         -6.66303      -16.19995       -0.36267
C         -5.75942      -17.11774       -0.74058
C         -5.98081      -18.51514       -0.57037
C         -6.97993      -19.20351        0.10073
C         -6.80744      -20.61767        0.07003
C         -5.68838      -20.98176       -0.63941
S         -4.86150      -19.62840       -1.26836
H         -7.41949        3.34277       -4.07675
H         -8.09291        2.21634       -6.36239
H         -8.06771       -0.42089       -6.16572
H         -8.57973       -4.22868       -2.09624
H         -6.16548       -4.64276       -2.95382
H         -4.90399       -0.08971       -4.67473
H         -2.44400       -0.52003       -5.35207
H         -4.89718       -5.21216       -4.94843
H         -2.51081       -5.26731       -2.99655
H         -3.35011       -6.24513       -0.95072
H         -3.65851       -7.85611       -0.29815
H         -5.85906       -6.10828       -1.49155
H         -5.51754       -6.25184        0.23839
H         -6.07710       -7.65565       -0.69053
H         -3.86909      -11.01989       -7.51618
H         -3.27027       -9.49780       -8.16379
H         -6.23549      -10.13943       -7.74869
H         -5.37222      -10.12429       -9.29555
H         -5.59305       -8.61982       -8.38278
H         -5.88100      -11.35689       -5.75777
H         -4.05735      -12.21584       -3.43802
H         -6.81234      -16.36013       -5.53419
H         -7.14661      -16.36789       -2.96460
H         -5.79904      -11.72312       -1.84536
H         -5.91991      -11.70860        0.74643
H         -7.60426      -16.48878        0.10073
H         -4.82536      -16.79905       -1.20063
H         -7.79743      -18.72005        0.62221
H         -7.46716      -21.32734        0.55393
H         -5.31251      -21.97964       -0.81701
