106

C          1.23580        1.80975       -6.16819
C          2.04111        1.87347       -7.25322
C          1.72607        1.21288       -8.47373
N          1.43810        0.70223       -9.47569
C          3.36014        2.40196       -7.13265
N          4.45956        2.74775       -6.98379
C          0.36052        0.65131       -5.90895
C          0.63921        0.21789       -4.59622
C          0.05390       -0.90048       -4.04175
C         -0.92899       -1.55403       -4.79676
C         -1.29565       -1.05883       -6.08744
C         -0.61683        0.02899       -6.65696
C         -2.36375       -1.65137       -6.76977
C         -3.04929       -2.72986       -6.21287
C         -2.65685       -3.24844       -4.98135
C         -1.60198       -2.66600       -4.27734
C          1.47865        1.22647       -3.89787
O          1.94954        1.17384       -2.78368
C          1.51624        2.37912       -4.85851
C          1.29235        3.60940       -4.37033
C          0.63401        4.73949       -5.01878
C         -0.65904        4.81201       -5.43499
N         -1.59654        3.71553       -5.45214
O         -2.39872        3.69841       -6.39397
O         -1.55527        2.88693       -4.53707
C         -1.09304        6.17075       -5.67518
C         -0.07992        6.99705       -5.37976
C          1.07809        6.16936       -5.01927
C          2.33230        6.63215       -4.83415
C          3.53388        5.80186       -4.92564
C          4.59923        6.61254       -4.85134
C          4.13181        7.96096       -4.62585
N          5.01925        9.06873       -4.34020
O          4.60280       10.00626       -3.64615
O          6.16600        8.98941       -4.79784
C          2.78493        8.03070       -4.62093
C          1.99836        9.20615       -4.34641
C          1.12928        9.28338       -3.32053
C          0.42383       10.48356       -3.07331
S          0.00909       10.91044       -1.46229
C         -0.56716       12.47693       -1.89408
C         -0.60413       12.59313       -3.26873
C         -0.06828       11.45762       -3.87849
C         -0.16517       11.57835       -5.28925
C         -0.76391       12.77058       -5.70681
C         -1.07170       13.15281       -7.12201
S         -1.18043       13.88679       -4.41407
C         -1.01092       13.43200       -0.90784
S         -2.55515       14.16159       -1.09523
C         -2.28953       15.34991        0.13285
C         -1.22736       14.91512        0.91334
C         -0.50433       13.79668        0.33011
C          0.56993       13.16493        0.98192
C          0.81519       13.65579        2.29104
C          1.77268       12.93013        3.08538
N          2.51968       12.31005        3.72036
C          0.11979       14.77877        2.85064
C          0.44477       15.23727        4.17590
N          0.69215       15.62614        5.24034
C         -0.91131       15.47336        2.16434
C         -3.24303       16.39654        0.35752
C         -3.90993       17.11385       -0.56828
C         -4.98301       18.12932       -0.35448
C         -5.81363       18.25020        0.71215
C         -6.88868       19.17714        0.76869
N         -7.76729       19.93254        0.81497
C         -5.71696       17.41004        1.86887
N         -5.62532       16.72716        2.80947
C         -5.14022       18.87652       -1.64638
C         -4.40178       18.21023       -2.62423
C         -3.60276       17.13854       -2.04266
O         -2.77670       16.53313       -2.69132
C         -4.33015       18.59127       -3.95488
C         -4.99664       19.74820       -4.33942
C         -5.72407       20.49412       -3.37172
C         -5.79538       20.04311       -2.02774
C         -6.34269       21.68472       -3.78337
C         -6.24451       22.12543       -5.10725
C         -5.53670       21.38015       -6.04621
C         -4.91778       20.19352       -5.66491
H          0.30482       -1.20555       -3.03047
H         -0.89496        0.39813       -7.64024
H         -2.69062       -1.26107       -7.73164
H         -3.89422       -3.16299       -6.74180
H         -3.18568       -4.09792       -4.55802
H         -1.32590       -3.07719       -3.30862
H          1.43723        3.76563       -3.29714
H         -2.08288        6.45656       -6.00302
H         -0.11970        8.06875       -5.48639
H          3.58312        4.74889       -5.14344
H          5.63481        6.32847       -4.96307
H          2.20050       10.06855       -4.97544
H          0.99776        8.45035       -2.63808
H          0.15016       10.82336       -5.99835
H         -0.69451       12.39266       -7.81713
H         -0.60679       14.10592       -7.39002
H         -2.15342       13.22606       -7.27467
H          1.13354       12.32700        0.59138
H         -1.42844       16.31311        2.61535
H         -3.41639       16.59355        1.40728
H         -3.72968       18.01381       -4.65352
H         -6.34227       20.65275       -1.31522
H         -6.90157       22.29096       -3.07313
H         -6.71944       23.05657       -5.40602
H         -5.45861       21.72479       -7.07426
H         -4.36027       19.62593       -6.40793
