126

C          7.78004        9.20403        2.92467
C          7.27256       10.39826        3.29313
C          7.11634       10.75248        4.66558
N          6.97455       11.00807        5.78890
C          7.05387       11.42430        2.33190
N          6.96369       12.28675        1.56113
C          8.56846        8.35089        3.82361
C          9.70834        7.94564        3.11821
C         10.76558        7.33633        3.75935
C         10.60718        7.03633        5.12840
C          9.34348        7.22784        5.76230
C          8.32404        7.89943        5.10169
C          9.12794        6.79554        7.07172
C         10.18786        6.30077        7.81961
C         11.45827        6.21945        7.25276
C         11.66224        6.55182        5.90897
C          9.47993        8.18532        1.66419
O         10.21871        7.94760        0.73717
C          8.05358        8.68826        1.60278
C          7.22055        8.22706        0.65499
C          5.75783        8.24556        0.58956
C          4.77340        8.02385        1.51049
N          4.84340        7.37678        2.79508
O          3.84463        6.73185        3.14337
O          5.84090        7.51148        3.49254
C          3.47768        8.42258        1.03713
C          3.59020        8.75337       -0.24434
C          4.95576        8.51177       -0.66617
C          5.26514        8.33078       -1.96989
C          6.36907        7.49329       -2.44647
C          6.30432        7.44477       -3.78321
C          5.19156        8.26199       -4.20877
N          4.94001        8.48853       -5.59879
O          5.90051        8.78920       -6.30913
O          3.78056        8.30485       -6.00544
C          4.50181        8.80109       -3.17511
C          3.48017        9.85116       -3.24239
C          2.17306        9.74836       -2.92845
C          1.19029       10.83239       -2.94436
C          0.52315       11.39982       -1.89980
N          0.80166       11.22918       -0.50173
O         -0.16372       11.22831        0.27498
O          1.98504       11.16698       -0.14405
C         -0.55135       12.26290       -2.32335
C         -0.58477       12.26092       -3.65952
C          0.44175       11.35275       -4.13635
C          0.63575       11.04395       -5.42952
C          1.93109       10.64802       -5.95497
C          1.79038       10.34029       -7.24450
C          0.41149       10.55052       -7.58494
N         -0.06480       10.19375       -8.88597
O         -1.02479        9.41924       -8.94649
O          0.58800       10.60430       -9.85362
C         -0.33764       11.02998       -6.56048
C         -1.73290       11.45592       -6.64000
C         -2.72163       11.31113       -5.73043
C         -4.09036       11.81813       -5.88626
C         -4.89870       12.35933       -4.93307
N         -4.54128       12.61156       -3.56266
O         -5.41118       12.39537       -2.70789
O         -3.43081       13.09655       -3.32885
C         -6.16451       12.81721       -5.45891
C         -6.16576       12.60567       -6.77983
C         -4.90249       11.97327       -7.13575
C         -4.60943       11.57028       -8.38753
C         -3.83058       10.37748       -8.67367
C         -3.64829       10.32477       -9.99714
C         -4.28621       11.47445      -10.59141
N         -3.99933       11.84376      -11.95260
O         -2.80349       11.94996      -12.25837
O         -4.94354       11.93904      -12.74444
C         -4.96192       12.22494       -9.68763
C         -5.58733       13.53110       -9.86244
C         -6.36962       13.86207      -10.89723
C         -7.14058       15.06591      -11.11505
C         -8.16510       15.47925      -10.35419
C         -9.36359       16.20450      -10.80531
C         -9.37636       17.28980      -11.62673
C        -10.58636       17.95483      -11.95218
N        -11.57585       18.48458      -12.22375
C         -8.19079       17.84695      -12.15813
N         -7.20623       18.29932      -12.60446
C        -10.51251       15.58127      -10.07886
C         -9.98882       14.80325       -9.03743
C         -8.52965       14.88096       -9.04308
O         -7.81228       14.63655       -8.10070
C        -10.74241       14.02861       -8.17391
C        -12.12418       14.01246       -8.36048
C        -12.70433       14.78923       -9.40381
C        -11.88674       15.56979      -10.26265
C        -14.09720       14.75026       -9.56646
C        -14.89680       13.96751       -8.72916
C        -14.32053       13.20523       -7.71716
C        -12.93941       13.22649       -7.53302
H         11.67665        7.10156        3.21868
H          7.36332        8.06985        5.58085
H          8.14214        6.87251        7.52792
H         10.02432        6.00956        8.85348
H         12.29567        5.89174        7.86207
H         12.66140        6.46474        5.48968
H          7.72189        7.79191       -0.20413
H          2.57105        8.46791        1.62440
H          2.73979        9.02173       -0.81616
H          7.04082        6.88349       -1.86810
H          6.93209        6.86513       -4.44480
H          3.87328       10.81976       -3.54914
H          1.76160        8.78094       -2.63317
H         -1.18889       12.84020       -1.66721
H         -1.20247       12.89899       -4.26767
H          2.88434       10.73552       -5.47596
H          2.57892       10.07052       -7.93077
H         -1.95887       11.95876       -7.57978
H         -2.51834       10.82222       -4.77987
H         -6.97940       13.20818       -4.86699
H         -7.00929       12.71969       -7.43333
H         -3.50393        9.63788       -7.95992
H         -3.10956        9.56628      -10.54405
H         -5.46258       14.23901       -9.04282
H         -6.52585       13.15866      -11.71049
H         -7.02854       15.43478      -12.13573
H        -10.25853       13.43689       -7.40360
H        -12.35713       16.12401      -11.06920
H        -14.57786       15.33197      -10.35047
H        -15.97532       13.95211       -8.86912
H        -14.94507       12.59481       -7.06946
H        -12.50698       12.62080       -6.73936
