111

C         -0.47974        4.52045        4.03116
C         -1.23322        5.63964        3.98647
C         -1.02955        6.72058        4.89124
N         -0.84775        7.59890        5.62914
C         -2.38051        5.72254        3.14342
N         -3.34003        5.78561        2.49401
C          0.47314        4.16195        5.11040
C          0.34221        2.78224        5.34439
C          1.15864        2.07308        6.20410
C          2.27087        2.74227        6.71879
C          2.46235        4.13264        6.44820
C          1.50729        4.85976        5.70920
C          3.66961        4.73228        6.82947
C          4.68507        3.97591        7.41858
C          4.47874        2.63049        7.71177
C          3.26513        2.02353        7.39297
C         -0.52603        2.17948        4.31086
O         -0.89536        1.02720        4.24758
C         -0.71633        3.27814        3.29894
C         -0.66432        2.90325        2.01067
C         -0.37592        3.71950        0.87049
O         -0.63461        5.07597        0.76877
C         -0.37439        5.52353       -0.51462
C          0.16041        4.45244       -1.20151
C          0.17211        3.31854       -0.35172
C          0.67335        2.00696       -0.73402
O          1.09803        1.17823        0.05879
O          0.65097        1.86055       -2.08901
C          1.20547        0.67018       -2.64960
C         -0.59898        6.83513       -1.01091
N         -0.45825        8.02575       -0.30147
C         -0.00190        8.16870        1.05885
C          1.50959        8.30433        1.13759
C         -0.62054        9.15140       -1.13747
O         -0.50032       10.33310       -0.89133
C         -0.89794        8.54441       -2.44623
C         -0.89018        7.11818       -2.28689
C         -1.15116        6.52426       -3.61123
O         -1.24414        5.33988       -3.85858
N         -1.22399        7.65064       -4.46164
C         -1.44955        7.57564       -5.90088
C         -0.80438        6.37576       -6.58098
C         -1.10311        8.83660       -3.72949
C         -1.12741       10.15231       -4.29835
C         -2.20165       10.67932       -4.90549
C         -2.22995       12.01564       -5.51085
C         -3.07502       12.24099       -6.59983
C         -3.14256       13.51700       -7.18451
N         -4.03581       13.66395       -8.31974
O         -5.22461       13.36719       -8.13678
O         -3.54489       14.03827       -9.39223
C         -2.38908       14.60127       -6.70834
C         -1.56495       14.35513       -5.59649
C         -1.48374       13.08640       -5.00994
C         -2.48710       15.96861       -7.25666
C         -1.45234       16.82293       -7.26142
C         -1.52828       18.16876       -7.78581
C         -0.53885       19.07785       -7.78352
C         -0.55769       20.48743       -8.24221
C         -1.34078       21.02442       -9.20726
C         -1.21068       22.37128       -9.65167
N         -1.10993       23.47236      -10.00921
C         -2.32497       20.27174       -9.91910
N         -3.13156       19.67018      -10.49393
C          0.59314       21.16390       -7.56973
C          1.39638       20.18504       -6.97257
C          0.79499       18.85917       -7.11623
O          1.30868       17.83189       -6.72785
C          2.57069       20.45741       -6.28718
C          2.96696       21.78551       -6.16963
C          2.15346       22.81189       -6.72568
C          0.96932       22.49208       -7.41534
C          2.55818       24.15230       -6.56842
C          3.73629       24.46816       -5.89494
C          4.53242       23.46030       -5.35919
C          4.15008       22.12570       -5.49360
H          1.02372        1.00201        6.32679
H          1.66886        5.91442        5.50383
H          3.86432        5.77847        6.60212
H          5.64917        4.43324        7.62705
H          5.27593        2.04216        8.15943
H          3.13438        0.96509        7.61079
H         -0.71503        1.83160        1.80910
H          0.50957        4.47053       -2.22721
H          0.52037        0.30797       -3.42214
H          1.36527       -0.12621       -1.91912
H          2.15286        0.93246       -3.12864
H         -0.34368        7.32641        1.66080
H         -0.46359        9.07028        1.47592
H          2.00746        7.39668        0.78102
H          1.81932        8.48353        2.17114
H          1.86301        9.13991        0.52401
H         -1.03595        8.47420       -6.37275
H         -2.53115        7.57033       -6.07429
H          0.27213        6.34897       -6.38381
H         -0.95726        6.42207       -7.66347
H         -1.23963        5.43313       -6.23903
H         -0.20411       10.71788       -4.19119
H         -3.12022       10.10099       -4.98600
H         -3.67789       11.42888       -7.00280
H         -0.97429       15.15307       -5.14752
H         -0.83857       12.96458       -4.14141
H         -3.44467       16.26501       -7.68004
H         -0.49668       16.49617       -6.86366
H         -2.50790       18.42182       -8.18165
H          3.14551       19.64541       -5.84925
H          0.36325       23.30599       -7.80498
H          1.95745       24.95670       -6.98230
H          4.03988       25.50851       -5.78636
H          5.45253       23.70824       -4.83508
H          4.78065       21.35094       -5.06373
