88

C         -0.94443       -1.73589       -6.93550
C         -0.30239       -0.50541       -7.25698
C          1.06189       -0.57130       -7.10299
S          2.23577        0.70497       -7.40219
C          1.45278        1.60439       -8.75680
S          1.55221       -2.09742       -6.51503
C         -0.05716       -2.70971       -6.52553
C         -0.28737       -4.05206       -6.11843
C         -1.34902       -4.74742       -6.55711
C         -1.65585       -6.10974       -6.19119
C         -0.94081       -6.87368       -5.33286
C         -1.58383       -8.17438       -5.23408
C         -2.73884       -8.11763       -6.10229
C         -2.78999       -6.90739       -6.66715
F         -3.61532       -9.11047       -6.30182
C         -1.16689       -9.19297       -4.47375
C         -1.80024      -10.49454       -4.35921
C         -1.10231      -11.21612       -3.45584
C          0.03801      -10.42086       -3.00531
C         -0.01149       -9.22789       -3.60236
F          0.87832       -8.24149       -3.43939
C         -1.43226      -12.57589       -3.13282
C         -1.12379      -13.16596       -1.96877
C         -1.46675      -14.52131       -1.73122
S         -1.90409      -15.04423       -0.14362
C         -2.19458      -16.67575       -0.62858
C         -1.97029      -16.80980       -1.97780
C         -1.54093      -15.61006       -2.54007
C         -1.26625      -15.81748       -3.91790
C         -1.54779      -17.11981       -4.36086
C         -1.46375      -17.63635       -5.71744
O         -1.71052      -18.77968       -6.08104
O         -1.14755      -16.61390       -6.56590
C         -1.39020      -16.89915       -7.94158
S         -2.13293      -18.20950       -3.11977
C         -2.59832      -17.68350        0.28149
C         -2.23478      -18.97713        0.13763
C         -2.79197      -19.74666        1.24394
C         -3.48473      -18.78294        2.07542
C         -3.37645      -17.57272        1.51847
F         -4.13839      -19.06748        3.20850
C         -2.64917      -21.06261        1.41708
C         -3.13404      -21.85954        2.53885
C         -2.73898      -23.13986        2.34473
C         -2.02817      -23.21721        1.07177
C         -1.97255      -21.99600        0.53325
F         -1.41065      -21.69136       -0.64073
C         -3.02827      -24.22405        3.24390
C         -2.61817      -24.25579        4.52212
C         -3.04186      -25.24589        5.46462
C         -4.23438      -25.07010        6.23235
C         -4.45630      -26.11403        7.09270
S         -5.81464      -26.26386        8.19274
C         -5.10765      -25.46399        9.65151
S         -3.24906      -27.30175        6.97219
C         -2.36441      -26.42325        5.76437
C         -1.16929      -26.96403        5.19368
C         -0.32511      -27.76176        5.86398
H         -2.01548       -1.88485       -6.99050
H         -0.84001        0.37415       -7.58246
H          2.10513        2.42321       -9.06990
H          0.49998        2.03516       -8.43820
H          1.28584        0.94390       -9.61242
H          0.43864       -4.50115       -5.44623
H         -2.05100       -4.29748       -7.25539
H         -0.04772       -6.59206       -4.79892
H         -3.54078       -6.56395       -7.35907
H         -2.67787      -10.81432       -4.89910
H          0.80100      -10.75437       -2.32215
H         -1.98799      -13.10959       -3.89987
H         -0.63957      -12.60614       -1.17371
H         -0.89806      -15.05367       -4.59342
H         -0.90417      -16.12399       -8.53950
H         -2.46821      -16.85173       -8.12337
H         -0.99014      -17.87216       -8.24124
H         -1.61341      -19.40118       -0.63438
H         -3.79312      -16.65674        1.90622
H         -3.70410      -21.47776        3.36998
H         -1.61928      -24.11749        0.64474
H         -3.63729      -25.02974        2.83893
H         -2.00464      -23.44645        4.91327
H         -4.89489      -24.21456        6.14805
H         -5.84702      -25.46851       10.45639
H         -4.84178      -24.42692        9.42865
H         -4.21764      -25.99938        9.99345
H         -0.93640      -26.70517        4.16370
H         -0.47310      -28.04273        6.90262
H          0.55982      -28.16165        5.37916
