71

C         -1.10324       -8.97803       -2.21932
S         -2.26212       -7.72452       -2.24329
C         -1.09593       -6.48411       -2.59181
C          0.16406       -7.06408       -2.71681
C          0.15261       -8.50917       -2.51360
C          1.29407       -9.32031       -2.60319
C          1.26873      -10.73154       -2.39466
N          1.25106      -11.88020       -2.21759
C          2.46787       -8.61008       -2.92659
C          2.48979       -7.19636       -3.11695
C          1.35159       -6.36495       -3.00475
C         -1.55900       -5.10845       -2.75364
S         -0.87714       -4.06469       -3.98273
C         -1.91426       -2.74344       -3.61960
C         -2.79341       -3.12976       -2.65483
C         -2.58464       -4.42265       -2.12903
C         -3.55203       -4.73794       -1.11496
C         -4.47935       -3.76583       -0.91555
S         -4.16303       -2.37233       -1.93538
O         -3.60026       -1.25929       -1.20141
O         -5.09858       -2.23534       -3.02990
C         -5.64955       -3.93275       -0.13396
C         -5.94957       -3.55945        1.17186
C         -5.05454       -2.82698        2.13437
C         -4.30375       -3.77407        3.05984
C         -7.27489       -3.97719        1.54318
C         -7.94666       -4.67495        0.55875
S         -6.98824       -4.74112       -0.85852
C         -9.26722       -5.21014        0.63984
C         -9.68991       -6.26256       -0.08085
C        -11.03473       -6.73052       -0.01861
S        -11.35981       -8.41811       -0.35578
C        -13.06823       -8.24274       -0.19429
C        -13.35354       -6.94205        0.09592
C        -12.23305       -6.09656        0.21893
C        -12.60564       -4.74890        0.51491
C        -13.93790       -4.56621        0.62533
S        -14.81334       -6.06011        0.31145
O        -15.44146       -6.07949       -0.98807
O        -15.40631       -6.61418        1.51140
C        -14.57864       -3.33659        0.89816
S        -14.86477       -2.26802       -0.43935
C        -15.83265       -1.20713        0.48663
C        -15.90312       -1.61726        1.79141
C        -15.09918       -2.79369        2.06581
C        -14.96899       -3.30855        3.37469
C        -14.05029       -4.33219        3.74497
N        -13.25255       -5.11473        4.05920
C        -15.74146       -2.61368        4.33564
C        -16.56516       -1.48975        4.02360
C        -16.66250       -0.92501        2.73607
H         -1.42123       -9.99139       -2.00490
H          3.40907       -9.15444       -3.03342
H          3.44428       -6.72767       -3.36435
H          1.44206       -5.29577       -3.14002
H         -1.84422       -1.80308       -4.15062
H         -3.57409       -5.68414       -0.59865
H         -5.66715       -2.15264        2.74780
H         -4.34606       -2.19338        1.59158
H         -4.99314       -4.29170        3.73696
H         -3.58950       -3.21677        3.67404
H         -3.75438       -4.53493        2.49625
H         -7.70729       -3.78989        2.52085
H         -9.92533       -4.73756        1.36162
H         -9.00481       -6.79834       -0.73372
H        -13.73900       -9.08009       -0.33398
H        -11.88643       -3.95147        0.64192
H        -16.29307       -0.34603        0.02056
H        -15.70492       -2.93913        5.37735
H        -17.13812       -1.03269        4.83226
H        -17.27693       -0.05807        2.52659
