66

C         -1.09358        0.23208       -1.94692
S         -0.49011        1.80421       -1.70729
C          1.13787        1.26602       -1.74136
O          2.08401        2.19662       -1.66955
C          1.23313       -0.10520       -1.89546
C         -0.07727       -0.68956       -2.04031
C          2.50121       -0.93995       -1.97241
C          3.75226       -0.76171       -1.41265
C          4.66293       -1.86370       -1.72886
C          5.97332       -1.95488       -1.23133
C          6.33103       -0.86943       -0.40639
C          5.45096        0.20332       -0.09221
C          4.12311        0.29203       -0.56162
C          4.10311       -2.83861       -2.53739
S          2.47161       -2.40128       -2.88441
C          4.66896       -4.02746       -3.10877
C          3.92279       -5.09946       -3.42856
C          4.46723       -6.29783       -4.08484
C          4.47009       -6.31531       -5.47879
C          4.90043       -7.44934       -6.15201
C          5.39174       -8.56481       -5.45345
C          5.39354       -8.55030       -4.03068
N          5.82482       -9.60903       -3.29040
C          5.67720       -9.57146       -1.95144
C          5.15231       -8.47939       -1.31397
N          4.77729       -7.38240       -1.99385
C          4.88909       -7.40739       -3.34557
C          5.83283       -9.75112       -6.24601
C          6.51359       -9.89109       -7.44731
C          6.69915      -11.28427       -7.83261
C          7.33507      -11.68200       -9.02086
C          7.74452      -10.59794       -9.82117
C          7.58029       -9.23553       -9.44284
C          6.98526       -8.82236       -8.23028
C          6.22409      -12.18522       -6.89362
S          5.32357      -11.31161       -5.71351
C          6.37547      -13.61177       -6.82530
C          5.89297      -14.37555       -5.82937
C          6.14403      -15.77762       -5.74995
S          5.42183      -16.68401       -4.46856
C          6.14933      -18.13718       -4.96747
O          5.93621      -19.25762       -4.29018
C          6.92534      -17.96370       -6.08449
C          6.92325      -16.61389       -6.53835
H         -2.15734        0.04929       -2.01052
H          1.59900        3.03342       -1.56038
H         -0.27203       -1.74593       -2.18292
H          6.65785       -2.77144       -1.42146
H          7.33067       -0.85452        0.02878
H          5.81775        0.99638        0.56038
H          3.48802        1.10483       -0.24644
H          5.74159       -4.04463       -3.28474
H          2.85686       -5.15509       -3.22803
H          4.10303       -5.46176       -6.04510
H          4.81743       -7.46212       -7.23619
H          5.98342      -10.45940       -1.41135
H          5.01089       -8.45168       -0.23949
H          7.48812      -12.70431       -9.33903
H          8.21745      -10.81284      -10.78018
H          7.93575       -8.46900      -10.13281
H          6.91237       -7.77315       -7.98083
H          6.96390      -14.07140       -7.61160
H          5.30873      -13.93878       -5.02291
H          5.34470      -18.99788       -3.56242
H          7.47603      -18.76927       -6.55258
H          7.48536      -16.27736       -7.39764
