103

C          1.35685       -0.23063       -2.62404
S          1.87841        0.37630       -1.11617
C          2.16281        1.95663       -1.73360
C          1.86630        1.99095       -3.10309
C          1.38089        0.72921       -3.60979
C          1.00424        0.51953       -5.05066
C          0.77606        1.83114       -5.80139
F          0.77731        1.55409       -7.13979
C          1.88382        2.83682       -5.50803
F          1.61250        3.99800       -6.17639
C          1.98321        3.17621       -4.02358
C          2.60006        3.04778       -0.86443
S          1.99140        4.65818       -1.15427
C          2.90790        5.40014        0.09495
C          3.61008        4.42411        0.75519
C          3.41495        3.11151        0.24493
C          4.18174        2.19129        1.07445
O          4.21950        0.96765        0.98146
C          4.95713        2.99116        2.11713
C          4.49969        4.41611        1.90755
O          4.84591        5.37011        2.59321
C          2.79982        6.80522        0.28971
C          3.80221        7.49628        0.84730
C          3.77999        8.89479        1.11466
N          4.01108        9.45936        2.36832
C          4.25735        8.72609        3.59724
C          2.98583        8.39961        4.36483
C          4.00750       10.86476        2.29900
O          4.16546       11.69754        3.17386
C          3.78157       11.12077        0.86185
C          3.64327        9.85952        0.21346
C          3.44839       10.07448       -1.21920
O          3.31841        9.20680       -2.05375
N          3.42929       11.48401       -1.31494
C          3.19792       12.18119       -2.56999
C          2.21436       11.48791       -3.50140
C          3.68733       12.07494       -0.06796
C          3.76147       13.47390        0.22337
C          4.22500       14.45235       -0.57097
C          4.18573       15.81732       -0.15163
S          2.86861       16.37757        0.77243
C          5.05525       16.86328       -0.41143
C          6.21466       16.76190       -1.32448
O          6.44083       15.80940       -2.05950
C          7.05977       17.94165       -1.27044
C          8.22768       18.20107       -1.96001
N          8.71172       19.40904       -1.52662
C          9.98570       19.98933       -1.91017
C          9.87080       20.86118       -3.14522
C          7.84672       19.95422       -0.61795
C          6.81128       19.06234       -0.43679
C          5.67675       19.20736        0.46301
O          5.59761       20.17331        1.19954
C          4.73970       18.06332        0.40288
C          3.49439       17.94930        1.03049
C          2.69645       18.86096        1.85787
S          3.45538       19.89586        3.00428
C          2.00662       20.61876        3.48622
C          0.91786       20.01368        2.91048
C          1.30111       18.98708        1.96507
C          0.22671       18.23944        1.20676
C         -1.18158       18.41570        1.77959
F         -2.07027       18.02560        0.81772
C         -1.47457       19.85818        2.16912
F         -2.73481       19.93233        2.68879
C         -0.50371       20.34383        3.23640
H          1.06022       -1.26803       -2.71893
H          0.10534       -0.10291       -5.13687
H          1.80916       -0.03690       -5.54806
H         -0.20296        2.26374       -5.56543
H          2.84055        2.46454       -5.88923
H          1.18368        3.88887       -3.78935
H          2.94052        3.68088       -3.85552
H          6.03319        2.93393        1.92402
H          4.70011        2.69331        3.13503
H          1.89112        7.30879       -0.02561
H          4.74393        7.03382        1.10710
H          4.90793        9.33455        4.23517
H          4.80684        7.80901        3.37104
H          2.49321        9.31165        4.71773
H          3.22400        7.78525        5.24080
H          2.27161        7.84629        3.74706
H          4.16480       12.30950       -3.06794
H          2.77984       13.16982       -2.35750
H          2.59001       10.52025       -3.84233
H          2.04372       12.09374       -4.39524
H          1.25520       11.32713       -2.99837
H          3.42854       13.71264        1.23553
H          4.67345       14.21856       -1.53163
H          8.76048       17.60982       -2.69433
H         10.68516       19.16390       -2.07821
H         10.35537       20.57177       -1.05821
H          9.50558       20.28426       -4.00112
H         10.84863       21.27834       -3.40467
H          9.17625       21.69153       -2.98011
H          8.03386       20.91460       -0.15122
H          2.01692       21.42262        4.20982
H          0.40494       17.16305        1.20387
H          0.23924       18.56686        0.16021
H         -1.33631       17.75646        2.64239
H         -1.44856       20.50138        1.28295
H         -0.75791       19.87703        4.19737
H         -0.62873       21.42324        3.37848
