122

C        -12.12744       -7.81570        8.05387
C        -13.24065       -8.63523        7.87618
F        -14.38663       -8.32573        8.49711
C        -13.17807       -9.74475        7.04535
F        -14.26536      -10.50064        6.84187
C        -11.99545      -10.07128        6.39501
C        -10.86774       -9.25628        6.54732
C        -10.93062       -8.09265        7.37517
C         -9.82671       -7.21193        7.45036
C         -8.70144       -7.46129        6.67538
C         -8.67915       -8.61804        5.88191
C         -9.70748       -9.54141        5.83063
C         -7.55614       -8.58029        4.93858
O         -7.25012       -9.46200        4.16399
C         -6.98203       -7.19896        5.06962
C         -7.49442       -6.64983        6.34630
C         -6.90219       -5.71597        7.12951
C         -5.67950       -5.07792        6.75273
N         -4.71234       -4.53791        6.42125
C         -7.43447       -5.33670        8.39619
N         -7.88757       -5.02582        9.42039
C         -6.34366       -6.58163        4.06030
C         -5.97853       -7.16159        2.77938
C         -5.06650       -8.14543        2.55392
N         -4.27814       -8.79065        3.58115
O         -3.87675       -9.93819        3.33808
O         -4.02744       -8.16314        4.61999
C         -5.02423       -8.55322        1.16816
C         -5.96560       -7.87276        0.50160
C         -6.68198       -7.02587        1.46323
C         -7.81722       -6.35044        1.17643
C         -8.37210       -5.21078        1.90057
C         -9.47575       -4.80832        1.24356
C         -9.72371       -5.72219        0.14532
N        -10.94882       -5.70936       -0.63238
O        -11.55689       -4.63143       -0.68153
O        -11.33615       -6.75339       -1.17307
C         -8.76339       -6.66620        0.06460
C         -8.78956       -7.84328       -0.77477
C         -8.73161       -9.09296       -0.27619
C         -8.71256      -10.24010       -1.12009
S         -9.69010      -10.27579       -2.53690
C         -9.04035      -11.76262       -3.11032
C         -8.17517      -12.28277       -2.16405
C         -8.04388      -11.44399       -0.99074
C         -7.26264      -11.78882        0.12596
C         -6.62722      -13.04976       -0.00455
C         -5.79249      -13.57258        1.13937
C         -6.71744      -13.84238       -1.19811
C         -7.49449      -13.49681       -2.32681
C         -9.48150      -12.29022       -4.36144
C         -9.70334      -11.50425       -5.43137
C        -10.08120      -11.97488       -6.74845
C         -9.45329      -12.94820       -7.45963
N         -8.28125      -13.67629       -7.02123
O         -8.19006      -14.85114       -7.40115
O         -7.43203      -13.09350       -6.33551
C        -10.07073      -13.16650       -8.74243
C        -11.08998      -12.31166       -8.88682
C        -11.17432      -11.47676       -7.67229
C        -12.08751      -10.49370       -7.46714
C        -12.18375       -9.69957       -6.23900
C        -13.23069       -8.87345       -6.35125
C        -13.86540       -9.09672       -7.62768
N        -15.06178       -8.36166       -7.98280
O        -15.87205       -8.86369       -8.76903
O        -15.25831       -7.29128       -7.39108
C        -13.21315      -10.02813       -8.36819
C        -13.46467      -10.39573       -9.75640
C        -14.60693      -10.91226      -10.23625
C        -14.84158      -11.20313      -11.63578
C        -15.86767      -10.73196      -12.36274
C        -16.21771      -11.36728      -13.67381
O        -15.52318      -12.08106      -14.36543
C        -17.62281      -10.98642      -13.92938
C        -18.37769      -11.31387      -15.04175
C        -19.68412      -10.81323      -15.11788
C        -20.23260      -10.08293      -14.01881
C        -21.54157       -9.58903      -14.10378
C        -22.27778       -9.76705      -15.26979
C        -21.73581      -10.45219      -16.34815
C        -20.45441      -10.99025      -16.27535
F        -22.43885      -10.58869      -17.48050
F        -23.51020       -9.24775      -15.35061
C        -19.44645       -9.80645      -12.88759
C        -18.11371      -10.18544      -12.88515
C        -16.95258       -9.79118      -12.05506
C        -16.81144       -8.53462      -11.55511
C        -15.51913       -7.94407      -11.42293
N        -14.47360       -7.44216      -11.37553
C        -17.91253       -7.67291      -11.28382
N        -18.83610       -7.00191      -11.05751
H        -12.22528       -6.94651        8.69920
H        -11.98330      -10.93904        5.74029
H         -9.91755       -6.30702        8.04601
H         -9.63289      -10.40181        5.17026
H         -6.07027       -5.53281        4.13705
H         -4.32067       -9.25735        0.75052
H         -6.11909       -7.91186       -0.56654
H         -7.92855       -4.69749        2.73632
H        -10.09797       -3.95563        1.47361
H         -8.87381       -7.65756       -1.84456
H         -8.62006       -9.25583        0.79303
H         -7.15926      -11.18551        1.01974
H         -5.96879      -14.64488        1.28031
H         -6.05621      -13.07760        2.08008
H         -4.72984      -13.40659        0.94020
H         -6.15631      -14.77823       -1.24124
H         -7.52866      -14.12176       -3.21027
H         -9.57212      -13.37097       -4.43073
H         -9.55454      -10.42937       -5.36238
H         -9.74517      -13.91232       -9.45511
H        -11.72650      -12.27084       -9.74942
H        -11.55792       -9.72560       -5.36826
H        -13.55378       -8.14320       -5.62367
H        -12.63793      -10.20157      -10.44111
H        -15.44160      -11.12236       -9.56813
H        -14.18791      -11.96072      -12.07103
H        -17.93521      -11.89664      -15.84519
H        -21.99034       -9.02858      -13.28727
H        -20.06052      -11.51428      -17.14200
H        -19.87912       -9.24575      -12.06334
