119

C        -13.81222        1.56778       -6.24640
C        -15.19796        1.53466       -6.38824
F        -15.73504        1.68911       -7.60615
C        -16.01719        1.31462       -5.29026
F        -17.34592        1.23360       -5.44291
C        -15.46927        1.15403       -4.02414
C        -14.07909        1.17438       -3.85648
C        -13.22512        1.35641       -4.98940
C        -11.82299        1.23644       -4.85215
C        -11.29202        0.88667       -3.61730
C        -12.16015        0.76095       -2.52117
C        -13.53049        0.92925       -2.59838
C        -11.47957        0.09125       -1.40489
O        -11.89585       -0.05378       -0.27565
C        -10.23099       -0.47583       -2.00909
C         -9.96284        0.34188       -3.21198
C         -8.76154        0.62988       -3.76385
C         -7.56070        0.10132       -3.21279
N         -6.60531       -0.35429       -2.73544
C         -8.62181        1.53063       -4.86344
N         -8.52372        2.27269       -5.74416
C         -9.79240       -1.71433       -1.70070
C        -10.45304       -2.64587       -0.77951
C        -11.74715       -3.08259       -0.82605
N        -12.68561       -2.83732       -1.90758
O        -12.25910       -2.40174       -2.98634
O        -13.86727       -3.15017       -1.70574
C        -12.05267       -4.03116        0.22290
C        -10.91159       -4.35545        0.83958
C         -9.83332       -3.60533        0.19643
C         -8.52755       -3.83241        0.43454
C         -7.46352       -2.84614        0.27327
C         -6.32879       -3.40690        0.72009
C         -6.60763       -4.77755        1.09532
N         -5.57083       -5.72328        1.42670
O         -5.79701       -6.55297        2.31600
O         -4.50443       -5.61769        0.80504
C         -7.90365       -5.11190        0.90751
C         -8.46781       -6.46415        0.87265
C         -7.90107       -7.48924        0.20766
C         -8.45276       -8.80147        0.18698
S         -9.41242       -9.30229       -1.15731
C         -9.54018      -10.94029       -0.60471
C         -8.90796      -11.05382        0.61781
C         -8.24786       -9.86893        1.03722
O         -7.48076       -9.79507        2.15691
C         -7.17444      -11.11546        2.65128
C         -8.41502      -12.00666        2.65333
O         -8.87853      -12.21682        1.31637
C        -10.27088      -11.88632       -1.39333
C        -10.69324      -13.05362       -0.87704
C        -11.58159      -14.01041       -1.50444
C        -11.45617      -15.36424       -1.48156
N        -10.39918      -16.12506       -0.83198
O         -9.51326      -15.53519       -0.20331
O        -10.46516      -17.35942       -0.93778
C        -12.53033      -16.01233       -2.20354
C        -13.35687      -15.07582       -2.68868
C        -12.86291      -13.76451       -2.26081
C        -13.52058      -12.59717       -2.46153
C        -13.28149      -11.37594       -1.69091
C        -14.10142      -10.41949       -2.12970
C        -14.93359      -10.98625       -3.16387
N        -16.00447      -10.23061       -3.78254
O        -16.39977       -9.22800       -3.17165
O        -16.45679      -10.60778       -4.87096
C        -14.65109      -12.29479       -3.39715
C        -15.40714      -13.13827       -4.30420
C        -15.05722      -13.84838       -5.38940
C        -13.74904      -14.11768       -5.96136
C        -13.54729      -14.92423       -7.02213
C        -12.21942      -15.58633       -7.28698
O        -11.12124      -15.21588       -6.93399
C        -12.55721      -16.85222       -7.99896
C        -11.70273      -17.84331       -8.45272
C        -12.26955      -18.97743       -9.06948
C        -13.69167      -19.12668       -9.11433
C        -14.25970      -20.27194       -9.68626
C        -13.44482      -21.23423      -10.26663
C        -12.06638      -21.07557      -10.27310
C        -11.47344      -19.96811       -9.66699
F        -11.29102      -21.98757      -10.87499
F        -14.00760      -22.30653      -10.83986
C        -14.52569      -18.10652       -8.64305
C        -13.94793      -16.94132       -8.17312
C        -14.50233      -15.59890       -7.90470
C        -15.33584      -14.99312       -8.79112
C        -15.25749      -13.58382       -9.00234
N        -15.11722      -12.46042       -9.25433
C        -16.12102      -15.71594       -9.73888
N        -16.75990      -16.33227      -10.49026
H        -13.20683        1.71683       -7.13658
H        -16.13757        0.96275       -3.18837
H        -11.19973        1.29815       -5.74069
H        -14.15092        0.73367       -1.72754
H         -8.97126       -2.16115       -2.25886
H        -13.04912       -4.34221        0.49921
H        -10.83198       -4.94297        1.74088
H         -7.56958       -1.81670       -0.03166
H         -5.35731       -2.94109        0.78785
H         -9.40837       -6.62382        1.39139
H         -6.96558       -7.36894       -0.33188
H         -6.78411      -11.01450        3.66773
H         -6.38806      -11.55086        2.02051
H         -9.23072      -11.56160        3.23677
H         -8.18871      -12.98994        3.07758
H        -10.56395      -11.59398       -2.39988
H        -10.39750      -13.34118        0.12665
H        -12.65159      -17.08210       -2.28866
H        -14.28036      -15.28945       -3.19641
H        -12.63474      -11.25045       -0.83086
H        -14.20174       -9.42025       -1.73021
H        -16.47685      -13.13381       -4.07237
H        -15.89281      -14.35085       -5.87844
H        -12.88336      -13.76417       -5.40227
H        -10.62664      -17.71910       -8.36099
H        -15.33690      -20.41627       -9.71857
H        -10.39051      -19.88172       -9.69687
H        -15.60588      -18.21145       -8.70967
