95

C          6.37503      -10.96288       -9.49955
S          4.86201      -11.59745       -8.90108
C          4.67519      -10.17691       -8.05845
C          5.73233       -9.31163       -8.26293
N          6.72287       -9.74988       -9.09278
C          5.56791       -8.01803       -7.49935
C          4.23134       -8.31761       -6.83275
C          3.75345       -9.56686       -7.17983
S          2.30124       -9.96987       -6.48518
C          2.22731       -8.42248       -5.67057
C          3.35621       -7.65120       -5.94974
C          1.08989       -8.14045       -4.86168
C          0.68090       -6.88195       -4.62921
C         -0.48083       -6.55626       -3.82638
C         -1.76409       -6.92862       -4.08171
O         -2.81261       -6.60734       -3.20655
C         -2.47329       -5.88063       -2.12218
C         -1.15520       -5.44701       -1.89155
C         -1.03136       -4.68654       -0.75839
S         -2.54544       -4.55102        0.05262
C         -3.34902       -5.49698       -1.14044
O         -0.13815       -5.76285       -2.72252
C         -2.19631       -7.65078       -5.27017
C         -3.46412       -8.00546       -5.53863
C         -3.80270       -8.68131       -6.74562
S         -5.40509       -8.48088       -7.40342
C         -3.03646       -9.53644       -7.54154
C         -3.75033       -9.98019       -8.66949
C         -3.56512      -10.84982       -9.83259
C         -2.47028      -11.56947      -10.17245
C         -2.43219      -12.52716      -11.33852
N         -1.98602      -11.85218      -12.55184
C         -1.15666      -11.49841       -9.43686
N         -1.08360      -12.49498       -8.37843
C         -5.03198       -9.46778       -8.68542
C         -5.70104       -9.94673       -9.82726
S         -7.19944       -9.74265      -10.51556
C         -4.84700      -10.76695      -10.52668
C         -5.44160      -11.22406      -11.72073
C         -6.75540      -10.77009      -11.85991
C         -7.71761      -11.00731      -12.88685
C         -7.42622      -11.73373      -13.97643
C         -8.38646      -11.97647      -15.03216
C         -8.16482      -11.75917      -16.33675
C         -9.13100      -12.00944      -17.37748
C         -8.70270      -11.67212      -18.60232
C         -7.34614      -11.14639      -18.63082
S         -6.69388      -11.08820      -16.99354
C         -6.64617      -10.79160      -19.72635
C         -7.11842      -10.82758      -21.09880
C         -6.16892      -10.56537      -22.00822
C         -4.86776      -10.30715      -21.43127
S         -4.96177      -10.26384      -19.68831
C         -3.74667      -10.16319      -22.15650
C         -2.46906       -9.98213      -21.58621
S         -1.34805      -11.26580      -21.26432
C         -0.12306      -10.18970      -20.64615
C         -0.60904       -8.93239      -20.71888
C         -1.87977       -8.82010      -21.23930
O         -2.39786       -7.56404      -21.34954
C         -1.34010       -6.85136      -20.81899
N         -1.55047       -5.44710      -20.73769
O         -1.34084       -4.92252      -19.63596
O         -1.87080       -4.86232      -21.78016
C         -0.23359       -7.61251      -20.42727
H          6.98984      -11.54841      -10.16991
H          5.49287       -7.16019       -8.17234
H          6.36113       -7.88147       -6.76046
H          3.52998       -6.66686       -5.53283
H          0.53124       -8.97870       -4.44927
H          1.22354       -6.02337       -5.01606
H         -0.14660       -4.21233       -0.35840
H         -4.40485       -5.71347       -1.06010
H         -1.42410       -7.86591       -6.00333
H         -4.26967       -7.75485       -4.85254
H         -2.02299       -9.80816       -7.28628
H         -3.40194      -13.00037      -11.50737
H         -1.75627      -13.36331      -11.12023
H         -1.06800      -11.44171      -12.39698
H         -1.86256      -12.54227      -13.29099
H         -0.96041      -10.49661       -9.04584
H         -0.33168      -11.68299      -10.13562
H         -1.79124      -12.28573       -7.67492
H         -0.18562      -12.40941       -7.90405
H         -4.95469      -11.84277      -12.46023
H         -8.70368      -10.55922      -12.78641
H         -6.43730      -12.15862      -14.13311
H         -9.34811      -12.36682      -14.70638
H        -10.10521      -12.43284      -17.17467
H         -9.30586      -11.80411      -19.48830
H         -8.13921      -11.05615      -21.36789
H         -6.34293      -10.56701      -23.07561
H         -3.79297      -10.22720      -23.23915
H          0.82710      -10.56435      -20.29335
H          0.68764       -7.23579      -20.00307
