101

C        -11.12423       -9.93784        5.77028
S        -11.80939      -10.40302        4.23585
C        -10.61267       -9.50773        3.51023
C         -9.77132       -8.91809        4.43115
N        -10.05357       -9.15573        5.74597
C         -8.68496       -8.09908        3.77207
C         -9.07412       -8.33483        2.31927
C        -10.18627       -9.14828        2.21554
S        -10.69085       -9.44107        0.66586
C         -9.38884       -8.45587        0.02686
C         -8.60137       -7.93223        1.05252
C         -9.31453       -8.33244       -1.37733
C         -8.14230       -8.11416       -2.01255
C         -8.06066       -8.08895       -3.42975
S         -9.12979       -9.04822       -4.43926
C         -8.35273       -8.56487       -5.86525
O         -8.67851       -8.95006       -6.94982
C         -7.31670       -7.70909       -5.60919
C         -7.17176       -7.44744       -4.25196
C         -6.14765       -6.57406       -3.99270
O         -5.83376       -6.19235       -2.90241
S         -5.35872       -6.10730       -5.40821
C         -6.38834       -7.08988       -6.42434
C         -6.21166       -7.17001       -7.83694
C         -5.21332       -6.54147       -8.47736
C         -5.01888       -6.62650       -9.88116
S         -5.45500       -8.04898      -10.76716
C         -4.77771       -7.45779      -12.19662
O         -4.76140       -8.09782      -13.20517
C         -4.27904       -6.18955      -12.04799
C         -4.41953       -5.72711      -10.74161
C         -3.90165       -4.47283      -10.57401
O         -3.90037       -3.86881       -9.53936
S         -3.22694       -3.87508      -12.01491
C         -3.62931       -5.32593      -12.90809
C         -3.23248       -5.41596      -14.26430
C         -3.95127       -6.09682      -15.16800
C         -3.56669       -6.19474      -16.55332
C         -4.37562       -5.87377      -17.59394
O         -3.93792       -5.95410      -18.92213
C         -2.64351       -6.31787      -19.08295
C         -1.82014       -6.68078      -17.99826
C         -0.54852       -7.02941      -18.36920
S         -0.35128       -6.86390      -20.07049
C         -1.98279       -6.35019      -20.28291
O         -2.25961       -6.65806      -16.72432
C         -5.73930       -5.39216      -17.47491
C         -6.08787       -4.29689      -16.77908
C         -7.45730       -3.82816      -16.62965
C         -7.94588       -3.68217      -15.37008
C         -9.30181       -3.20006      -15.16061
C        -10.01393       -2.96669      -14.02094
C         -9.62434       -3.18390      -12.55149
C         -9.29924       -4.68733      -12.27258
N         -8.89758       -4.99690      -10.89461
C         -8.47456       -2.22071      -12.11313
N         -8.00835       -2.38572      -10.72585
C        -11.32498       -2.48326      -14.50767
C        -12.42831       -2.04822      -13.87369
C        -13.70037       -1.62101      -14.61673
C        -13.57513       -1.65757      -16.13579
C        -12.46690       -2.07474      -16.77141
C        -11.34055       -2.48703      -15.97496
C        -10.12416       -2.90123      -16.35676
C         -9.57110       -3.05876      -17.67924
C         -8.30025       -3.48855      -17.79390
C        -14.85936       -2.49072      -14.18461
C        -15.69547       -2.20538      -13.17618
H        -11.56790      -10.28121        6.69555
H         -7.69080       -8.49858        3.98479
H         -8.76031       -7.04142        4.03504
H         -7.74690       -7.28650        0.88461
H        -10.23133       -8.45342       -1.93497
H         -7.21876       -7.97144       -1.44951
H         -6.93249       -7.77606       -8.38667
H         -4.49224       -5.92895       -7.94534
H         -2.33157       -4.89296      -14.58294
H         -4.89237       -6.58046      -14.92501
H          0.26868       -7.35238      -17.73931
H         -2.35838       -6.09744      -21.26347
H         -6.49190       -5.98554      -17.98977
H         -5.33073       -3.70262      -16.27036
H         -7.34058       -3.93404      -14.50867
H        -10.49336       -2.93736      -11.92574
H         -8.49943       -5.03462      -12.93180
H        -10.18533       -5.29346      -12.48875
H         -8.16671       -4.31969      -10.62649
H         -8.47073       -5.91931      -10.85101
H         -8.81013       -1.18371      -12.22747
H         -7.60076       -2.35490      -12.75660
H         -8.79103       -2.22635      -10.08643
H         -7.30693       -1.68042      -10.50048
H        -12.46289       -1.97624      -12.79241
H        -13.91029       -0.57591      -14.34991
H        -14.43185       -1.32756      -16.71988
H        -12.41182       -2.09717      -17.85426
H        -10.16552       -2.82159      -18.55302
H         -7.85394       -3.58999      -18.77978
H        -15.00186       -3.42468      -14.72695
H        -15.58881       -1.30354      -12.58206
H        -16.49228       -2.89300      -12.90821
