99

C         -0.50265        2.79690        4.55517
C          0.23115        3.89128        4.88963
C          1.33701        3.85283        5.78943
N          2.23027        3.83922        6.52936
C          0.00027        5.16495        4.30975
N         -0.17651        6.19633        3.80826
C         -0.16532        1.38027        4.91090
C         -0.94612        0.52510        4.13168
C         -0.82953       -0.86459        4.14213
C          0.16150       -1.44006        4.97116
C          0.93721       -0.58921        5.77052
C          0.77012        0.81861        5.77475
S          2.10145       -1.47740        6.68741
C          1.62888       -2.93737        5.98737
C          0.56185       -2.81234        5.13713
Br         2.49795       -4.56073        6.33153
C         -1.87341        1.29221        3.28714
O         -2.63281        0.81112        2.47306
C         -1.67299        2.74497        3.63336
C         -2.53813        3.70892        3.25629
C         -3.69413        3.55604        2.41671
C         -3.72767        3.06547        1.00974
N         -4.90056        2.97402        0.44727
C         -5.73703        3.37633        1.43735
C         -4.99403        3.80586        2.59959
C         -5.97062        4.33728        3.60919
S         -5.66439        5.31643        4.91628
C         -7.29598        3.93204        3.02020
C         -7.04166        3.44775        1.67457
N         -8.20212        3.15950        1.03516
C         -9.09379        3.39428        1.95083
C         -8.60217        3.85440        3.28226
C         -9.46374        4.11757        4.37659
C        -10.82563        4.71465        4.24812
N        -11.52366        4.84914        5.33771
C        -10.69424        4.34412        6.28434
C         -9.46265        3.85990        5.68870
C         -8.65068        3.20950        6.77292
S         -7.33746        2.20457        6.62124
C         -9.43514        3.55290        8.00494
C        -10.67760        4.17110        7.60077
N        -11.46308        4.43347        8.67762
C        -10.71304        4.05440        9.67443
C         -9.37603        3.49637        9.33392
C         -8.37724        3.08795       10.28012
C         -8.63987        2.09047       11.14606
C         -7.68645        1.67096       12.14059
C         -6.37290        2.30363       12.30075
C         -5.95040        3.33077       11.56601
S         -6.88542        4.02647       10.26852
C         -5.73004        1.63264       13.36488
C         -6.56744        0.66861       13.87127
C         -6.02554       -0.04903       14.94718
C         -4.74187        0.40742       15.20847
S         -4.24348        1.67412       14.12481
C         -7.77558        0.69843       13.09261
C         -8.88039       -0.18773       13.31114
C         -9.31420       -1.02809       12.36341
C        -10.46120       -1.86404       12.57382
C        -11.28596       -2.31378       11.61842
C        -12.55564       -3.02378       11.81842
C        -12.81535       -3.90544       12.81482
C        -14.08473       -4.49647       12.99595
N        -15.14467       -4.95140       13.17278
C        -11.82047       -4.33116       13.74846
N        -11.00405       -4.67571       14.49855
C        -13.40736       -2.70359       10.63710
C        -12.59657       -2.09698        9.66424
C        -11.24016       -1.87359       10.18385
O        -10.32195       -1.38118        9.56270
C        -13.04811       -1.71716        8.40972
C        -14.39234       -1.94051        8.10091
C        -15.25318       -2.51788        9.07739
C        -14.75056       -2.89057       10.34483
C        -16.60376       -2.71477        8.75367
C        -17.09642       -2.37011        7.49321
C        -16.24862       -1.81692        6.53815
C        -14.90502       -1.59746        6.84114
H         -1.45642       -1.47910        3.50068
H          1.40903        1.39985        6.42739
H          0.10821       -3.64628        4.61502
H         -2.43858        4.72473        3.62915
H         -2.78229        2.83220        0.49605
H        -10.17552        3.27721        1.78435
H        -11.19855        5.00519        3.25398
H        -11.01885        4.12445       10.73012
H         -9.59152        1.56641       11.11368
H         -4.98247        3.78094       11.76085
H         -6.51106       -0.84297       15.50145
H         -4.06146        0.06177       15.97507
H         -9.36075       -0.12917       14.28475
H         -8.81038       -1.07948       11.39950
H        -10.66890       -2.06074       13.62324
H        -12.36688       -1.25391        7.70063
H        -15.43874       -3.31555       11.06828
H        -17.28937       -3.14664        9.48040
H        -18.14440       -2.53754        7.25637
H        -16.63345       -1.55458        5.55561
H        -14.26133       -1.15934        6.08064
