108

C         -3.10181        2.69968        4.14819
C         -3.79692        3.63008        3.37967
F         -3.38817        4.90608        3.37005
C         -4.89708        3.24550        2.62635
F         -5.55518        4.14594        1.88409
C         -5.32615        1.92344        2.62998
C         -4.64542        0.96923        3.39844
C         -3.50784        1.35691        4.17089
C         -2.80036        0.39709        4.92992
C         -3.22450       -0.92534        4.93332
C         -4.33928       -1.26667        4.15983
C         -5.06207       -0.36295        3.39957
C         -4.57064       -2.71141        4.21247
O         -5.60110       -3.25872        3.88345
C         -3.32691       -3.30057        4.82153
C         -2.69507       -2.17478        5.55688
C         -1.96068       -2.24436        6.69359
C         -1.58155       -1.08410        7.42725
N         -1.28961       -0.12965        8.02154
C         -1.59366       -3.48570        7.28661
N         -1.28256       -4.50123        7.75430
C         -2.84760       -4.53594        4.57745
C         -3.44578       -5.48376        3.68515
C         -4.19539       -5.28704        2.52287
C         -4.68379       -6.49105        1.99714
C         -4.17001       -7.57658        2.66118
S         -3.19477       -7.19820        3.95373
C         -4.63208       -8.74492        2.02060
C         -5.45927       -8.39337        0.97783
C         -5.55737       -6.93487        0.91685
C         -6.29301       -6.17119        0.08576
C         -7.12003       -6.74889       -0.91397
N         -7.79235       -7.21869       -1.73334
C         -6.27995       -4.74508        0.15185
N         -6.25742       -3.58707        0.17416
C         -5.93642       -9.52750        0.28523
C         -5.42296      -10.72155        0.81670
S         -4.37368      -10.36853        2.18924
C         -5.62444      -12.08393        0.37837
C         -5.58580      -13.07854        1.28837
C         -5.76400      -14.45694        0.93157
C         -6.03303      -14.89211       -0.44081
C         -6.11330      -14.06416       -1.48088
S         -5.90329      -12.33934       -1.34709
C         -6.16552      -16.29617       -0.39462
C         -5.98111      -16.73333        0.89586
C         -6.11528      -18.12203        1.04361
C         -6.39600      -18.69807       -0.18776
S         -6.49267      -17.52968       -1.47185
C         -5.72652      -15.57326        1.71290
C         -5.50750      -15.58835        3.13493
C         -4.48082      -16.21921        3.72567
C         -4.25396      -16.20185        5.15710
C         -5.18236      -16.67401        6.00719
C         -4.92865      -16.74746        7.42291
C         -3.98948      -15.99231        8.02679
C         -3.06324      -15.12515        7.17485
C         -2.92269      -15.70676        5.71486
N         -2.25789      -14.76227        4.79001
C         -2.50718      -13.51925        5.02699
C         -3.35867      -13.04297        6.16467
N         -3.63094      -13.76289        7.19773
F         -3.85398      -11.80123        6.10326
F         -1.95967      -12.60226        4.22003
C         -3.75846      -16.05414        9.46820
C         -4.69192      -16.19692       10.42474
C         -4.30520      -16.61439       11.80915
O         -3.21685      -16.53656       12.33733
C         -5.52701      -17.21704       12.38574
C         -5.67561      -17.71089       13.66896
C         -6.94017      -18.18079       14.04750
C         -7.99745      -18.23927       13.08753
C         -9.26064      -18.70298       13.47806
C         -9.49071      -19.05943       14.80165
C         -8.47081      -18.98339       15.73986
C         -7.19652      -18.56276       15.37076
F         -8.70904      -19.30141       17.01919
F        -10.71692      -19.45615       15.16762
C         -7.79362      -17.77347       11.77906
C         -6.58181      -17.18354       11.45771
C         -6.15177      -16.30971       10.33832
C         -6.98475      -15.47771        9.66907
C         -6.52993      -14.22397        9.16795
N         -6.23531      -13.14244        8.86900
C         -8.38631      -15.70656        9.55133
N         -9.51265      -15.93532        9.42091
H         -2.24433        3.04139        4.72228
H         -6.18792        1.65285        2.02490
H         -1.91589        0.71158        5.47731
H         -5.90441       -0.70676        2.80343
H         -1.91261       -4.85707        5.02963
H         -4.41338       -4.30764        2.12212
H         -6.60532       -9.51792       -0.56813
H         -5.41361      -12.87499        2.33948
H         -6.31121      -14.45022       -2.47525
H         -6.02285      -18.68077        1.96593
H         -6.55487      -19.74510       -0.40852
H         -6.21832      -15.00787        3.71867
H         -3.74087      -16.75286        3.13097
H         -6.13458      -17.06806        5.66164
H         -5.56896      -17.43296        7.96787
H         -2.06126      -15.08620        7.62361
H         -2.26386      -16.58453        5.77991
H         -2.70722      -16.05635        9.76418
H         -4.84207      -17.66999       14.36517
H        -10.08889      -18.75515       12.77537
H         -6.42546      -18.50673       16.13436
H         -8.61158      -17.82400       11.06633
