92

C          6.35268       -3.10513       -1.80072
O          5.41749       -4.06335       -1.65245
C          4.42407       -3.58585       -0.82618
C          4.79389       -2.29384       -0.44160
C          6.03297       -1.97489       -1.07987
C          6.83389       -0.73571       -1.06590
F          7.91777       -0.81511       -1.88418
F          6.12227        0.34500       -1.47282
F          7.31409       -0.45314        0.17279
O          3.97221       -1.54791        0.33924
C          4.62520       -0.68958        1.26482
C          3.26532       -4.34557       -0.48220
C          3.10777       -5.59729       -0.94546
C          1.96436       -6.38907       -0.62752
C          0.65173       -6.00473       -0.34197
C         -0.17162       -7.12150       -0.09078
C          0.52719       -8.30505       -0.17811
S          2.12554       -8.13122       -0.59354
C         -0.34566       -9.37475        0.12591
C         -1.59345       -8.85994        0.40005
C         -1.56931       -7.41030        0.22033
C         -2.61028       -6.55308        0.25353
C         -3.94101       -7.01281        0.43605
N         -5.03022       -7.38609        0.59641
C         -2.43352       -5.15425        0.08308
N         -2.28621       -4.00864       -0.03383
C         -2.49363       -9.86090        0.81671
C         -1.90275      -11.12388        0.75772
S         -0.23487      -11.02855        0.26591
C         -2.49153      -12.38678        1.05821
C         -3.16529      -13.10629        0.14717
C         -3.90215      -14.31590        0.44047
C         -4.74802      -14.67475       -0.53847
C         -4.72790      -13.77307       -1.67829
S         -3.36002      -12.66840       -1.53093
C         -5.65447      -13.66942       -2.64936
C         -6.89851      -14.40692       -2.75394
C         -7.76801      -13.87010       -3.62541
C         -7.27133      -12.67530       -4.28230
S         -5.57750      -12.46370       -3.92736
C         -8.02749      -11.86635       -5.04427
C         -7.58453      -10.64816       -5.65454
C         -6.69060       -9.66606       -5.20791
C         -6.50609       -8.64974       -6.16311
C         -7.26633       -8.86984       -7.29059
S         -8.24642      -10.20856       -7.21516
C         -6.98188       -7.85770       -8.23299
C         -6.04799       -7.00626       -7.69009
C         -5.69032       -7.45319       -6.35282
C         -4.80418       -6.88211       -5.51335
C         -3.98072       -5.79132       -5.91533
N         -3.29722       -4.91441       -6.24332
C         -4.64658       -7.31910       -4.17794
N         -4.50732       -7.62085       -3.06019
C         -5.76968       -5.91799       -8.53463
C         -6.41539       -6.05228       -9.75649
S         -7.47031       -7.44478       -9.76577
C         -6.36316       -5.16936      -10.89664
O         -7.45636       -5.07084      -11.70693
C         -7.24767       -4.13630      -12.67872
C         -5.97013       -3.62485      -12.48838
C         -5.36836       -4.31534      -11.37824
C         -3.98914       -4.13205      -10.86723
F         -3.65680       -4.92139       -9.81904
F         -3.06367       -4.41209      -11.82426
F         -3.76572       -2.85361      -10.46756
O         -5.54338       -2.60179      -13.27321
C         -4.15251       -2.53837      -13.53676
C         -8.21394       -3.81791      -13.67374
C         -9.40140       -4.43548      -13.70825
H          7.17509       -3.35839       -2.45814
H          3.86807       -0.30814        1.95789
H          5.06062        0.17836        0.76359
H          5.37659       -1.22719        1.85298
H          2.53420       -3.88045        0.17203
H          3.87293       -6.04761       -1.57531
H          0.33976       -4.96761       -0.34070
H         -3.51998       -9.71401        1.13228
H         -2.45933      -12.71095        2.09395
H         -3.80812      -14.84403        1.37942
H         -5.40703      -15.52866       -0.47212
H         -7.12528      -15.27370       -2.14963
H         -8.76155      -14.26038       -3.80039
H         -9.06363      -12.14732       -5.22231
H         -6.18351       -9.72324       -4.25190
H         -5.13939       -5.07809       -8.28241
H         -3.99737       -1.79716      -14.32658
H         -3.76791       -3.49612      -13.90045
H         -3.59860       -2.18331      -12.66520
H         -7.96333       -3.07151      -14.42139
H         -9.68199       -5.19049      -12.97865
H        -10.12605       -4.19811      -14.47951
