106

C        -10.67214        5.42769        4.71127
C         -9.81951        5.83474        5.68142
C        -10.20175        6.75741        6.70898
N        -10.51102        7.50552        7.53060
C         -8.51392        5.28599        5.81441
N         -7.45206        4.83144        5.91963
C        -12.11670        5.76832        4.62094
C        -12.76789        4.72705        3.95336
C        -14.13993        4.68510        3.74578
C        -14.90819        5.76073        4.24891
C        -14.24771        6.83304        4.87106
C        -12.84423        6.87145        5.04347
S        -15.36925        8.03474        5.40041
C        -16.68718        7.07883        4.95944
C        -16.33298        5.94987        4.27001
Br       -18.45409        7.50753        5.40610
C        -11.78943        3.72653        3.49203
O        -12.04786        2.60630        3.10952
C        -10.44672        4.36284        3.71188
C         -9.34937        4.12298        2.97353
C         -9.30507        3.21451        1.86911
S         -9.79388        3.80691        0.32386
C         -9.31435        2.37978       -0.46602
C         -8.78772        1.43644        0.39406
C         -8.26880        0.10940       -0.07017
C         -8.81234        1.91474        1.76318
C         -8.31184        1.13511        2.86670
C         -8.75068        1.18235        4.13501
C         -8.19544        0.39715        5.20962
C         -8.27189       -0.94145        5.25105
C         -7.70511       -1.73562        6.28771
N         -8.19549       -2.90149        6.69824
C         -7.30318       -3.47724        7.54763
C         -6.19636       -2.73027        7.85965
S         -6.19903       -1.26516        7.07186
C         -5.31897       -3.38791        8.84804
C         -5.78126       -4.90682        8.63729
C         -7.34591       -4.79141        8.31636
C         -8.05037       -5.94812        7.56827
C         -8.15198       -7.30892        8.24604
C         -8.15908       -4.43926        9.63793
C         -8.00971       -5.33480       10.86092
N         -4.75123       -5.49362        7.67490
C         -3.44343       -5.10290        8.26803
S         -3.55391       -3.32405        8.56353
C         -4.80561       -5.58044        6.25250
O         -5.92211       -5.05016        5.62447
C         -6.10609       -5.13508        4.28572
C         -7.27884       -4.73817        3.70792
F         -8.31139       -4.29619        4.37553
S         -7.27739       -4.88530        2.03097
C         -3.79585       -6.13274        5.54159
S         -3.63188       -6.25480        3.83204
C         -5.18642       -5.62909        3.32129
C         -5.65734       -5.53981        2.00908
C         -5.14231       -5.83994        0.70160
C         -3.92966       -6.35281        0.44116
C         -3.37534       -6.59777       -0.90793
C         -4.08973       -6.99902       -2.08213
O         -5.41775       -7.31573       -1.85156
C         -6.38456       -6.95520       -2.83074
C         -3.44666       -7.21062       -3.35060
O         -4.24686       -7.59149       -4.40346
C         -3.64070       -7.78856       -5.67590
C         -2.05463       -7.07274       -3.51931
C         -1.30162       -6.71184       -2.38383
C         -1.95694       -6.46735       -1.05683
N         -1.05999       -6.13436       -0.10743
S          0.43536       -6.13128       -0.82091
N          0.03107       -6.55574       -2.37049
H        -14.60000        3.84069        3.23960
H        -12.39026        7.73509        5.51729
H        -17.04452        5.23926        3.86710
H         -8.43942        4.69618        3.12459
H         -9.42969        2.29660       -1.53875
H         -8.46462       -0.04328       -1.13779
H         -8.74411       -0.71097        0.47588
H         -7.18496        0.05052        0.07718
H         -7.51346        0.43235        2.63121
H         -9.55589        1.84350        4.43107
H         -7.73788        0.97536        6.00965
H         -8.80532       -1.48611        4.47683
H         -5.55306       -3.04716        9.86287
H         -5.65012       -5.46579        9.57110
H         -9.07503       -5.63228        7.32661
H         -7.59369       -6.13689        6.59902
H         -8.85011       -7.30194        9.08476
H         -7.17854       -7.68382        8.57359
H         -8.57348       -8.03827        7.54337
H         -7.88926       -3.43190        9.98423
H         -9.22506       -4.36081        9.38061
H         -7.01213       -5.25852       11.30055
H         -8.21014       -6.38544       10.67336
H         -8.72675       -5.01594       11.62618
H         -2.56112       -5.31309        7.65996
H         -3.30506       -5.61599        9.22632
H         -2.94666       -6.55420        6.06338
H         -5.79283       -5.60680       -0.13879
H         -3.23215       -6.57747        1.23776
H         -7.37170       -7.10546       -2.38025
H         -6.35856       -7.61354       -3.70061
H         -6.30247       -5.90119       -3.11380
H         -3.12024       -6.88664       -6.01618
H         -4.43435       -8.00078       -6.39764
H         -2.96815       -8.65201       -5.65152
H         -1.53271       -7.25129       -4.44841
