134

C         -0.78053        7.27209       -5.15109
O         -1.64384        6.48106       -5.46052
C          0.64799        7.10781       -5.42460
C          1.36423        8.25381       -5.03242
C          2.75037        8.22993       -5.14870
C          3.36871        7.09248       -5.68550
C          2.63025        5.98071       -6.09086
C          1.25277        5.98050       -5.95332
F          0.54025        4.90558       -6.31049
F          3.25580        4.90928       -6.59650
F          4.70328        7.08056       -5.80110
C          0.39038        9.27518       -4.53797
C          0.63966       10.60380       -4.38047
C          1.91503       11.17971       -4.60550
N          2.96930       11.64860       -4.79343
C         -0.37516       11.54539       -4.04175
N         -1.20309       12.31334       -3.77154
C         -0.91823        8.58886       -4.43308
C         -2.02520        8.94493       -3.76300
C         -3.27306        8.20318       -3.65121
C         -4.40198        8.81277       -4.09558
C         -5.69154        8.17674       -3.91434
C         -6.95151        8.57160       -4.24276
C         -7.47107        9.73087       -5.08515
C         -7.70223       10.99400       -4.21051
N         -8.26395       12.14575       -4.92894
C         -6.58844       10.08208       -6.31763
N         -6.38538        8.98323       -7.25890
C         -7.81834        7.59112       -3.56941
C         -9.13861        7.58991       -3.32516
C         -9.77935        6.54067       -2.42042
C         -8.85552        5.39339       -2.02238
C         -7.54272        5.38426       -2.30198
C         -7.00436        6.53031       -2.98026
C         -5.73314        6.88931       -3.18523
C         -4.51302        6.23039       -2.79902
C         -3.35084        6.87043       -3.01894
C        -11.06745        6.04941       -3.01439
C        -11.20004        4.99463       -3.83438
C        -12.46570        4.53086       -4.28147
C        -12.77848        3.25300       -4.67604
C        -14.18012        3.01307       -4.93898
C        -14.89022        1.81803       -5.24579
C        -14.16962        0.49868       -5.29696
C        -14.35271       -0.60982       -6.11957
C        -13.42618       -1.67120       -5.88758
C        -12.49287       -1.34159       -4.93469
S        -12.94349        0.09809       -4.13745
C        -11.25623       -2.07551       -4.53342
Cl       -13.47946       -3.13858       -6.76712
C        -16.28093        1.88339       -5.50666
C        -16.99605        3.09243       -5.42730
C        -16.29350        4.27716       -5.06936
C        -14.89620        4.21851       -4.84976
S        -13.83382        5.51452       -4.42225
C        -17.02105        5.58294       -4.90309
C        -16.63236        6.88689       -5.20084
C        -17.58292        7.88515       -4.82373
C        -18.71565        7.33856       -4.27055
S        -18.56641        5.64509       -4.12856
C        -19.95126        7.99906       -3.75679
Cl       -17.27584        9.55629       -5.04021
C        -18.38805        2.86822       -5.75286
C        -18.70627        1.57416       -6.07669
S        -17.34777        0.58475       -5.92171
C        -19.99052        1.09336       -6.51798
C        -20.97825        1.84143       -7.16413
C        -22.06277        1.02298       -7.53417
C        -21.87980       -0.27496       -7.11495
S        -20.46672       -0.56246       -6.30434
C        -22.93157       -1.06924       -7.60236
C        -23.76182       -0.27798       -8.35943
C        -23.30668        1.11219       -8.29176
C        -23.91711        2.21295       -8.77163
C        -23.36968        3.51135       -8.59349
N        -22.91983        4.56748       -8.43786
C        -25.16281        2.11969       -9.44828
N        -26.17979        1.98666       -9.99406
C        -24.70472       -1.05844       -9.05242
C        -24.60635       -2.41461       -8.71297
S        -23.32550       -2.67899       -7.56119
C        -25.30205       -3.55336       -9.21940
C        -26.55498       -3.51319       -9.69138
C        -26.98790       -4.57745      -10.65766
O        -26.56442       -5.70819      -10.74447
C        -27.95104       -3.90270      -11.54739
C        -28.20215       -2.59617      -11.08949
C        -27.54843       -2.44503       -9.76646
C        -27.96471       -1.66370       -8.74320
C        -28.99167       -0.70613       -8.89948
N        -29.83585        0.08147       -9.04414
C        -27.46171       -1.81174       -7.41802
N        -27.06711       -1.93278       -6.33342
C        -28.91173       -1.71305      -11.89208
C        -29.41677       -2.18867      -13.10572
C        -29.21870       -3.50967      -13.51579
C        -28.46537       -4.38089      -12.73709
F        -28.22964       -5.62685      -13.15169
F        -29.73034       -3.92925      -14.68316
F        -30.09354       -1.34207      -13.89475
H          3.39647        9.04228       -4.83621
H         -2.06928        9.86756       -3.19041
H         -4.36388        9.81024       -4.51064
H         -8.44608        9.43058       -5.49679
H         -6.75870       11.30350       -3.74703
H         -8.39772       10.75446       -3.39774
H         -7.69562       12.38886       -5.73808
H         -8.23550       12.96870       -4.32706
H         -5.61958       10.48017       -6.00560
H         -7.05917       10.88322       -6.89492
H         -5.86356        8.23113       -6.80875
H         -5.81521        9.30788       -8.03813
H         -9.77501        8.38574       -3.69784
H        -10.04165        7.04519       -1.47958
H         -9.28729        4.56393       -1.46750
H         -6.90037        4.56359       -2.00645
H         -4.54111        5.24609       -2.34837
H         -2.42001        6.39147       -2.73214
H        -11.93912        6.61781       -2.69703
H        -10.32267        4.41957       -4.12355
H        -12.00797        2.49559       -4.69356
H        -15.11222       -0.67886       -6.88622
H        -11.45569       -3.14295       -4.39953
H        -10.83156       -1.69490       -3.59887
H        -10.48966       -1.96852       -5.31086
H        -15.68120        7.14913       -5.64611
H        -19.86584        9.08973       -3.75159
H        -20.14874        7.68135       -2.72740
H        -20.82014        7.73501       -4.37020
H        -19.14766        3.63628       -5.76161
H        -20.86325        2.89431       -7.39348
H        -25.38852       -0.68218       -9.80129
H        -24.72067       -4.47009       -9.34041
H        -29.06798       -0.67080      -11.63553
