102

C         -8.76355       10.37295        0.52308
O         -8.46476        9.57103       -0.33245
C         -9.73095       11.44133        0.33769
C         -9.98500       12.09884        1.55004
C        -10.84294       13.19158        1.52077
C        -11.42369       13.56975        0.30078
C        -11.15096       12.89064       -0.88674
C        -10.28905       11.81300       -0.87346
F         -9.98934       11.17012       -2.00876
F        -11.70561       13.29494       -2.03737
F        -12.24318       14.62963        0.28037
C         -9.14796       11.47059        2.62446
C         -9.24275       11.71676        3.95449
C        -10.24957       12.54953        4.52080
N        -11.07988       13.21411        4.98367
C         -8.36434       11.13777        4.91164
N         -7.62730       10.67706        5.67935
C         -8.27849       10.47130        1.94828
C         -7.19169        9.79063        2.36136
C         -6.39091        8.90739        1.52083
C         -6.88101        7.72672        1.08787
C         -6.23621        6.98596        0.03451
C         -5.03677        7.50193       -0.64345
C         -4.37336        8.60010       -0.28533
S         -4.82881        9.57893        1.07537
C         -4.72115        6.58276       -1.65991
C         -5.61388        5.53947       -1.62987
C         -5.33099        4.55101       -2.58712
C         -4.21220        4.91454       -3.32679
S         -3.54749        6.44071       -2.83806
C         -6.57607        5.81356       -0.58149
C         -7.65444        4.91321       -0.24160
C         -8.98297        5.11239       -0.27771
C         -9.73609        6.26641       -0.74616
C        -10.62980        6.84209        0.08344
C        -11.47886        7.92724       -0.33963
C        -11.63509        8.26963       -1.75852
C        -10.85130        7.79935       -2.72810
S         -9.52339        6.70880       -2.43459
C        -12.64756        9.24710       -1.82981
C        -13.05813        9.57424       -0.56038
C        -14.03744       10.58242       -0.53490
C        -14.34079       10.97445       -1.83228
S        -13.42886       10.10644       -3.02896
C        -12.30577        8.75555        0.36678
C        -12.49485        8.82533        1.79632
C        -11.52807        8.64696        2.71337
C        -11.66684        8.70335        4.16647
C        -10.60574        8.35623        4.92765
C        -10.65964        8.35253        6.36646
C        -11.88310        8.70174        7.09571
C        -13.02405        9.07977        6.52656
S        -13.21575        9.23902        4.81503
C        -11.59528        8.55341        8.46250
C        -10.29430        8.13925        8.61832
C         -9.93039        7.99972        9.96762
C        -11.01118        8.30652       10.78606
S        -12.42465        8.76685        9.89420
C         -9.71736        8.00629        7.29580
C         -8.36466        7.58749        6.99871
C         -7.79828        6.45181        7.43351
C         -6.42537        6.11299        7.13069
C         -5.92739        5.11166        6.38634
C         -4.45960        5.19709        6.05600
O         -3.61967        5.87145        6.61248
C         -4.25541        4.33383        4.88733
C         -5.45323        3.67860        4.54586
C         -6.48502        4.00587        5.58392
C         -7.58085        3.25509        5.84448
C         -7.99523        2.17534        5.01634
N         -8.33639        1.30505        4.32765
C         -8.36560        3.38920        7.02613
N         -9.01483        3.41811        7.98004
C         -5.46249        2.87823        3.40771
C         -4.27880        2.72075        2.67415
C         -3.09714        3.35792        3.05109
C         -3.08263        4.18259        4.16518
F         -1.95676        4.81203        4.52118
F         -1.98109        3.17548        2.33240
F         -4.29402        1.93165        1.59121
H        -11.07601       13.79958        2.38652
H         -6.75100        9.93465        3.34231
H         -7.86382        7.38999        1.39544
H         -3.48290        8.90491       -0.82540
H         -5.88249        3.63426       -2.74655
H         -3.73949        4.37017       -4.13266
H         -7.30845        3.92556        0.06245
H         -9.61820        4.28747        0.04763
H        -10.76522        6.46076        1.08984
H        -10.98087        8.13711       -3.75047
H        -14.50097       11.01334        0.34346
H        -15.04594       11.73029       -2.15228
H        -13.51228        9.06967        2.09582
H        -10.52510        8.41493        2.36129
H         -9.67229        8.03080        4.47744
H        -13.89210        9.31433        7.13429
H         -8.96112        7.70190       10.34406
H        -11.05639        8.29243       11.86618
H         -7.79017        8.26042        6.36823
H         -8.35070        5.80550        8.10634
H         -5.72184        6.85599        7.51989
H         -6.33826        2.35527        3.04050
