114

C         17.03209       -7.10762        4.87506
C         17.04415       -7.88674        6.02502
F         18.16942       -7.97503        6.74533
C         15.91127       -8.57379        6.44115
C         14.73646       -8.48691        5.69517
C         14.69027       -7.69932        4.53823
C         15.85909       -6.99603        4.12032
C         15.84009       -6.21745        2.95057
C         14.68316       -6.16257        2.18860
C         13.53400       -6.82811        2.64722
C         13.51136       -7.59962        3.79436
C         12.39957       -6.61129        1.73337
O         11.26711       -7.02058        1.88153
C         12.92944       -5.73590        0.64047
C         14.39134       -5.65415        0.82418
C         15.33136       -5.51027       -0.13734
C         15.00527       -5.68782       -1.51209
N         14.76240       -5.93418       -2.61856
C         16.69911       -5.24871        0.13350
N         17.81106       -4.97617        0.36474
C         12.04993       -5.05582       -0.11796
C         12.29732       -3.94657       -1.03695
C         11.52147       -3.80802       -2.13482
C         11.76585       -2.78105       -3.11932
C         12.85024       -1.80198       -2.95831
C         13.67906       -1.74350       -1.92065
S         13.53035       -2.77651       -0.54592
C         12.85323       -1.00070       -4.11081
C         11.87325       -1.42964       -4.97003
C         11.82641       -0.67851       -6.15522
C         12.79261        0.32020       -6.12271
S         13.72265        0.31305       -4.65970
C         11.19624       -2.54681       -4.34274
C         10.14366       -3.30455       -4.98606
C          8.91932       -3.46763       -4.45917
C          7.82104       -4.21713       -5.05501
C          6.67337       -3.56648       -5.33294
C          5.47727       -4.25441       -5.75575
C          5.41924       -5.72112       -5.82448
C          6.45776       -6.52862       -5.61160
S          8.05699       -5.94961       -5.23188
C          4.09206       -6.05743       -6.15544
C          3.35004       -4.91101       -6.31496
C          2.01083       -5.18493       -6.64580
C          1.79090       -6.55250       -6.70371
S          3.22143       -7.46773       -6.37450
C          4.22744       -3.77987       -6.06015
C          3.85037       -2.37847       -6.06900
C          2.63286       -1.89070       -6.35079
C          2.26683       -0.48965       -6.33195
C          1.25145       -0.10878       -5.53193
C          0.78309        1.24763       -5.50239
C          1.39592        2.29833       -6.32664
C          2.39656        2.10295       -7.18334
S          3.13959        0.55473       -7.43975
C          0.69482        3.48571       -6.04682
C         -0.30270        3.22755       -5.13906
C         -1.04629        4.36573       -4.79405
C         -0.56162        5.46870       -5.48378
S          0.77465        5.08284       -6.52289
C         -0.24594        1.82143       -4.81341
C         -1.15903        1.15241       -3.91781
C         -2.48925        1.14793       -4.10741
C         -3.43825        0.52859       -3.20984
C         -3.45748       -0.75684       -2.82313
C         -4.25114       -1.12975       -1.61369
O         -5.23371       -0.58460       -1.15949
C         -3.51357       -2.26522       -1.03055
C         -3.74162       -2.83394        0.20826
C         -2.86161       -3.83316        0.63648
C         -1.77071       -4.22789       -0.19733
C         -0.91280       -5.24403        0.23410
C         -1.12953       -5.85971        1.45973
C         -2.17001       -5.46552        2.29080
C         -3.03432       -4.44978        1.88256
F         -0.32401       -6.85877        1.84143
C         -1.56536       -3.61888       -1.44480
C         -2.45602       -2.65539       -1.87285
C         -2.57675       -1.87604       -3.13798
C         -2.19378       -2.29645       -4.36597
C         -2.72884       -1.70765       -5.55325
N         -3.20498       -1.28665       -6.52433
C         -1.33206       -3.41060       -4.56603
N         -0.59913       -4.29217       -4.71731
H         17.94685       -6.59953        4.58061
H         15.94818       -9.17221        7.34523
H         13.85743       -9.03644        6.02570
H         16.74677       -5.69772        2.65844
H         12.60248       -8.12291        4.07799
H         10.99166       -5.31360       -0.01835
H         10.71665       -4.50931       -2.34015
H         14.48074       -1.01239       -1.89669
H         11.14954       -0.83169       -6.98461
H         13.01246        1.06218       -6.87739
H         10.38804       -3.72243       -5.96053
H          8.67868       -3.00039       -3.50638
H          6.61469       -2.49414       -5.17971
H          6.33709       -7.60508       -5.68314
H          1.21521       -4.47694       -6.82168
H          0.85643       -7.05342       -6.91843
H          4.63417       -1.66783       -5.81632
H          1.80853       -2.54036       -6.60856
H          0.76323       -0.82723       -4.88255
H          2.78329        2.92598       -7.77486
H         -1.87267        4.40461       -4.09669
H         -0.91536        6.48902       -5.43723
H         -0.70688        0.66216       -3.05807
H         -2.92587        1.67427       -4.95611
H         -4.15597        1.22499       -2.77086
H         -4.57623       -2.49765        0.81686
H         -0.08110       -5.58171       -0.37871
H         -2.30584       -5.95591        3.24905
H         -3.84619       -4.15046        2.54277
H         -0.70786       -3.91042       -2.04391
