125

C          2.92815      -10.09801        2.86687
C          4.28722       -9.94011        2.80770
C          4.72593       -8.60200        2.45145
C          6.02155       -8.04793        2.23231
C          7.24460       -8.91005        2.29985
C          8.39402       -8.90246        1.51481
C          9.40267       -9.81257        1.95109
C          8.99963      -10.54996        3.03833
S          7.44953      -10.06959        3.56200
C          9.74586      -11.58527        3.80983
Cl        10.93602       -9.90240        1.19425
C          6.16533       -6.66282        1.95423
C          5.06247       -5.79562        1.94315
C          3.75964       -6.35278        2.12070
C          3.61202       -7.74936        2.33307
S          2.13653       -8.67635        2.43430
C          2.54294       -5.47345        2.11759
C          1.35475       -5.58125        2.83593
C          0.43417       -4.51801        2.60688
C          0.94756       -3.56741        1.75897
S          2.40294       -4.11359        1.05679
C          0.37410       -2.24357        1.38205
Cl        -1.09855       -4.45714        3.36556
C          5.52075       -4.42617        1.77264
C          6.86066       -4.27016        1.49319
S          7.62519       -5.77758        1.62363
C          7.63311       -3.05925        1.16794
C          8.77880       -3.05553        0.34312
C          9.52071       -1.89490        0.01493
F         10.53002       -2.07725       -0.85054
C          9.24156       -0.59852        0.49150
C          8.08884       -0.53093        1.33954
C          7.25690       -1.77496        1.66152
N          6.19232       -1.48782        2.43248
S          6.21991        0.13086        2.74587
N          7.59970        0.56160        1.95523
C         10.04922        0.59444        0.16138
C         11.40298        0.74239       -0.09076
C         11.78966        2.11812       -0.33795
N         13.06469        2.50321       -0.61936
C         13.92622        1.45348       -0.66606
C         15.32160        1.80924       -1.01453
O         15.67862        2.95630       -1.25256
C         16.31457        0.72488       -1.07174
C         15.97448       -0.54210       -0.83820
C         14.59219       -0.93515       -0.49445
O         14.34527       -2.11751       -0.29047
C         13.56467        0.12998       -0.41364
N         12.29922       -0.28665       -0.09079
C         10.74427        3.00893       -0.22872
S          9.27874        2.12657       -0.04856
C         10.78217        4.46133       -0.26932
C         11.87350        5.28778       -0.41639
C         11.59434        6.71681       -0.44634
C         12.44329        7.84867       -0.65344
C         13.88480        7.64215       -1.04994
C         15.02829        8.38772       -0.77665
C         16.23522        7.83640       -1.30817
C         16.02132        6.64810       -1.96243
S         14.34973        6.34631       -2.11192
C         17.02179        5.70352       -2.54626
Cl        17.75602        8.59434       -1.09586
C         11.91274        9.16273       -0.48975
C         10.55776        9.38196       -0.17422
C          9.70808        8.24669       -0.01377
C         10.23817        6.93682       -0.16434
S          9.41345        5.41684       -0.03481
C          8.26954        8.46714        0.35719
C          7.69639        9.44929        1.15791
C          6.27792        9.35545        1.27756
C          5.77231        8.26920        0.60717
S          6.99577        7.47801       -0.26769
C          4.36671        7.78650        0.50327
Cl         5.36424       10.49686        2.16573
C         10.27494       10.81156       -0.10518
C         11.34571       11.63532       -0.35998
S         12.73315       10.69205       -0.63125
C         11.45021       13.06139       -0.35304
C         11.20034       13.84173       -1.42132
C         11.59935       15.25749       -1.64700
C         11.56276       16.26485       -0.75041
C         11.85903       17.61375       -1.09134
N         12.09890       18.71773       -1.37059
C         11.14613       16.05429        0.61239
N         10.81779       15.85829        1.68923
C         11.87497       15.37482       -3.11118
C         11.35493       14.23906       -3.73813
C         10.72610       13.34451       -2.74942
O          9.91403       12.47739       -2.98806
C         11.48292       13.97070       -5.09449
C         12.19081       14.90526       -5.88638
C         12.69809       16.05799       -5.27218
C         12.55543       16.31401       -3.87960
S         13.50404       17.06561       -6.42245
C         13.21711       15.97314       -7.69864
C         12.51745       14.86643       -7.28068
H          2.37711      -10.99715        3.10961
H          4.93277      -10.77977        3.02007
H          8.54820       -8.23501        0.67658
H         10.44115      -12.14286        3.17404
H          9.07151      -12.31475        4.27191
H         10.32137      -11.10054        4.60491
H          1.13254       -6.38542        3.52418
H         -0.50898       -2.37520        0.75028
H          1.09377       -1.61935        0.84183
H          0.07621       -1.68745        2.27891
H          4.86735       -3.56742        1.81089
H          9.13102       -3.98720       -0.10063
H         17.32886        1.01402       -1.32947
H         16.70318       -1.34597       -0.88728
H         12.86841        4.87814       -0.50692
H         15.03405        9.30045       -0.19943
H         17.65084        6.21334       -3.28310
H         16.55266        4.85006       -3.04630
H         17.67528        5.30602       -1.76020
H          8.26042       10.23146        1.64588
H          3.84461        7.87871        1.46108
H          4.31499        6.73258        0.20640
H          3.83002        8.37656       -0.24566
H          9.30368       11.23740        0.10325
H         11.90123       13.47586        0.54214
H         11.08116       13.05210       -5.51970
H         13.00357       17.21247       -3.46620
H         13.57555       16.19011       -8.69644
H         12.24578       14.05560       -7.94686
