138

C         -3.79096        0.92038        7.42757
C         -3.12662        1.85138        8.17092
C         -3.66246        2.39480        9.37154
N         -4.09372        2.84006       10.34365
C         -1.83059        2.29289        7.84887
N         -0.74992        2.57477        7.57151
C         -5.12130        0.33223        7.78376
C         -5.24111       -0.86994        7.09264
C         -6.34090       -1.70526        7.19760
C         -7.41356       -1.31236        8.03412
C         -7.33253       -0.07290        8.68153
C         -6.18722        0.76044        8.57564
S         -8.78379        0.26352        9.56613
C         -9.49142       -1.19125        9.09018
C         -8.65277       -1.97415        8.34511
Br       -11.25111       -1.68670        9.50740
C         -4.09481       -1.08948        6.19228
O         -3.92435       -2.06453        5.49221
C         -3.28714        0.18064        6.25859
C         -2.43215        0.55490        5.27659
C         -2.09698       -0.16015        4.05132
C         -0.87890       -0.71337        3.91142
C         -0.78582       -1.44237        2.60971
N         -0.72157       -2.93542        2.94076
O          0.29732       -3.31982        3.53795
O         -1.64908       -3.67558        2.58310
C         -2.07700       -1.04934        1.89754
C         -2.22961       -1.28721        0.39103
C         -0.86641       -1.56587       -0.24983
C         -0.80691       -2.82722       -0.71422
C         -2.11366       -3.43356       -0.60841
C         -2.94302       -2.54127       -0.03514
N         -4.29813       -2.46331       -0.53519
O         -4.65586       -3.27963       -1.39749
O         -4.99626       -1.53069       -0.12337
C         -2.86313       -0.36939        2.77954
C         -4.16660        0.20320        2.45781
C         -5.14862        0.27884        3.36489
C         -6.47495        0.84553        3.28167
C         -7.52755        0.04796        3.61074
C         -8.88332        0.58021        3.68614
C        -10.11766        0.01787        3.90861
C        -10.53117       -1.45395        4.13690
C         -9.90868       -2.14088        5.36703
N         -8.51183       -2.50558        5.21735
C        -12.05462       -1.79251        4.25374
N        -12.71360       -1.25627        5.45396
C        -11.04184        1.17348        3.83243
C        -12.37828        1.29408        3.88040
C        -13.12783        2.60522        3.87632
C        -12.23956        3.79982        3.58840
C        -10.90532        3.70214        3.45398
C        -10.29687        2.40728        3.60335
C         -9.01546        2.04602        3.48386
C         -7.87305        2.86701        3.16062
C         -6.66978        2.28050        3.05406
C        -13.85012        2.77479        5.19637
C        -15.11435        2.37747        5.43681
C        -15.76679        2.55324        6.71567
C        -15.24027        2.07573        7.85563
C        -16.05070        2.51833        9.03663
N        -15.16621        3.49643        9.83786
O        -13.95983        3.21819        9.94328
O        -15.70035        4.45454       10.40540
C        -17.25304        3.19400        8.36550
C        -18.49453        3.56651        9.16043
C        -18.79256        2.51066       10.22673
C        -18.76100        3.05627       11.46049
C        -18.56615        4.48168       11.34843
C        -18.42167        4.76612       10.04700
N        -18.56884        6.09209        9.54673
O        -18.15582        6.31449        8.40290
O        -19.18481        6.90645       10.24708
C        -17.05101        3.22424        7.01884
C        -17.89698        3.85203        6.00987
C        -19.08219        3.43062        5.53066
C        -19.81667        4.10737        4.45898
C        -20.22004        5.38776        4.44773
C        -20.06580        6.42832        5.45393
C        -20.68889        6.44124        6.66804
C        -20.88844        7.65213        7.39554
N        -21.09610        8.65818        7.94937
C        -21.41430        5.31213        7.12990
N        -22.03505        4.39897        7.49580
C        -19.87563        7.68602        4.72243
C        -20.62067        7.57339        3.54979
C        -20.83896        6.11907        3.26440
O        -21.37399        5.63557        2.29538
C        -21.09128        8.70578        2.90257
C        -20.69897        9.97232        3.43112
C        -19.73692       10.01696        4.45762
C        -19.27494        8.86503        5.11066
S        -19.28307       11.63333        4.84247
C        -20.49373       12.26092        3.85353
C        -21.16961       11.30308        3.14146
Br       -20.86600       14.09343        3.75803
H         -6.37378       -2.61051        6.59981
H         -6.19374        1.70625        9.10407
H         -8.94148       -2.94049        7.95217
H         -1.90633        1.50465        5.34065
H         -0.06828       -0.67867        4.62700
H          0.12887       -1.17455        2.07338
H         -2.64710       -0.39731       -0.09478
H         -0.06108       -0.84724       -0.31611
H          0.02584       -3.28994       -1.22618
H         -2.39350       -4.31056       -1.17820
H         -4.35580        0.53503        1.44208
H         -4.98871       -0.11520        4.34505
H         -7.34438       -0.98491        3.85871
H        -10.18688       -2.00143        3.24713
H        -10.42807       -3.08701        5.57248
H        -10.06846       -1.50657        6.24245
H         -8.31067       -2.81219        4.26986
H         -8.29211       -3.28590        5.83051
H        -12.18907       -2.88221        4.28087
H        -12.56894       -1.47730        3.34075
H        -13.69963       -1.08032        5.27404
H        -12.66087       -1.89802        6.24029
H        -13.03574        0.45037        3.93348
H        -13.86367        2.54773        3.06448
H        -12.72084        4.76412        3.46944
H        -10.29292        4.56487        3.22478
H         -7.99058        3.93064        3.00454
H         -5.78888        2.87897        2.84164
H        -13.26863        3.23431        5.99680
H        -15.69462        1.88857        4.65873
H        -14.31343        1.52176        7.94435
H        -16.30686        1.68466        9.69435
H        -19.36793        3.63634        8.50459
H        -19.00294        1.47178       10.01916
H        -18.93345        2.54918       12.39950
H        -18.63945        5.18127       12.16964
H        -17.42668        4.72747        5.55842
H        -19.52323        2.49910        5.88141
H        -20.03043        3.48707        3.58442
H        -21.80192        8.62948        2.08425
H        -18.60412        8.92583        5.96224
H        -21.98592       11.52643        2.46615
