111

C         -0.83772        2.75340       -4.89679
C         -1.44080        3.74895       -5.58533
C         -0.85034        4.36134       -6.72635
N         -0.35196        4.87860       -7.64376
C         -2.72058        4.23843       -5.19224
N         -3.71091        4.66426       -4.78087
C          0.46620        2.12125       -5.22170
C          0.46302        0.81870       -4.70290
C          1.57444       -0.00569       -4.72274
C          2.77856        0.53226       -5.19640
C          2.82356        1.88095       -5.65764
C          1.65207        2.66084       -5.69509
C          4.05955        2.43727       -6.01667
C          5.23117        1.68302       -5.94129
C          5.18135        0.35644       -5.52320
C          3.96325       -0.21685       -5.15479
C         -0.76115        0.59768       -3.90579
O         -1.11615       -0.43637       -3.38363
C         -1.38446        1.96488       -3.78269
C         -1.93097        2.27122       -2.58721
C         -2.22827        3.59259       -1.97966
C         -3.36506        3.81412       -1.17942
C         -4.33988        2.79274       -0.75315
O         -4.34124        1.63107       -1.11239
S         -5.48635        3.42878        0.39732
C         -4.89653        5.05292        0.16647
O         -5.50330        6.03828        0.53977
C         -3.64359        5.07112       -0.60540
C         -2.80436        6.18777       -0.78915
C         -1.72109        5.98452       -1.65540
C         -1.37991        4.70388       -2.11113
C          0.01956        4.68433       -2.56039
O          0.72136        3.69280       -2.59372
S          0.60992        6.27445       -2.92506
C         -0.82021        6.99739       -2.23565
O         -1.08892        8.16948       -2.40615
C         -2.82870        7.36970        0.10410
S         -2.75014        7.07164        1.83221
C         -2.53207        8.68650        2.13728
C         -2.46428        9.47917        1.01184
C         -2.73323        8.73517       -0.16435
C         -2.06511       10.92582        1.36549
C         -0.70318       11.29549        0.76486
C         -3.13841       11.93455        0.96552
C         -1.95679       10.75880        2.89095
C         -2.25156        9.46897        3.28111
S         -2.15064        9.19434        4.91401
C         -1.55805       10.81559        5.17731
C         -1.54938       11.55014        3.99083
C         -1.15069       11.16582        6.49545
C         -0.13098       12.01213        6.70784
C          0.33261       12.30281        8.06521
C          1.32447       11.52942        8.68396
C          2.09976       10.44310        8.06389
O          2.06141       10.13579        6.88744
S          3.13866        9.64787        9.22206
C          2.64811       10.73483       10.49449
O          2.98455       10.60295       11.65853
C          1.71291       11.76059       10.00672
C          1.23356       12.85611       10.74347
C          0.15702       13.55067       10.16190
C         -0.26217       13.30046        8.84822
C         -1.33709       14.21130        8.41660
O         -1.75888       14.31816        7.28143
S         -1.91438       15.18553        9.74380
C         -0.69742       14.55073       10.82164
O         -0.62366       14.86205       11.99556
C          1.85878       13.30826       12.01426
C          3.16361       13.59165       12.22258
C          3.86756       14.11732       13.42997
C          3.41608       14.13328       14.71002
C          4.18448       14.63466       15.80096
N          4.79823       15.05419       16.69137
C          2.14721       13.61011       15.09339
N          1.11909       13.17913       15.41531
C          5.24958       14.51483       12.98824
C          5.43484       14.07747       11.67384
C          4.19904       13.52042       11.12833
O          4.06032       13.16126        9.97497
C          6.60609       14.24740       10.94944
C          7.65363       14.94963       11.54326
C          7.50459       15.44316       12.86728
C          6.30009       15.21209       13.58133
C          8.56676       16.17241       13.42949
C          9.73414       16.42294       12.70143
C          9.86613       15.94091       11.40279
C          8.83445       15.20068       10.82907
H          1.52500       -0.99713       -4.28208
H          1.71888        3.70291       -5.99521
H          4.12783        3.47648       -6.33333
H          6.18471        2.13581       -6.20193
H          6.09549       -0.22924       -5.46647
H          3.95333       -1.24835       -4.80839
H         -2.10219        1.43118       -1.90600
H         -2.74304        9.16697       -1.15741
H         -0.74007       11.30783       -0.32995
H          0.07662       10.58159        1.05873
H         -0.37849       12.28651        1.10381
H         -3.25004       11.97730       -0.12418
H         -2.88439       12.94143        1.31658
H         -4.11677       11.67613        1.38659
H         -1.22813       12.58283        3.92805
H         -1.65220       10.67633        7.32678
H          0.41750       12.47914        5.89152
H          1.12915       13.46223       12.80254
H          6.67822       13.86787        9.93383
H          6.22425       15.62634       14.58165
H          8.49327       16.56472       14.44228
H         10.54069       16.99992       13.14788
H         10.76981       16.14454       10.83313
H          8.95473       14.83527        9.81091
