94

C          1.03836        3.26727       -1.32082
C          1.71254        3.58076       -2.44727
C          2.86145        2.84881       -2.86702
N          3.80786        2.28491       -3.22952
C          1.38086        4.71921       -3.22676
N          1.10814        5.65504       -3.85797
C         -0.08758        3.96937       -0.67542
C         -0.07084        3.80035        0.72378
C         -1.06807        4.36783        1.51648
C         -2.09460        5.09156        0.90452
C         -2.12447        5.24103       -0.48521
C         -1.12428        4.67768       -1.28069
C          1.05714        2.95661        1.15087
S          1.55760        2.00622       -0.22068
C          1.65809        3.02306        2.35082
C          2.87998        2.37108        2.72041
C          3.97621        1.94863        1.95768
C          5.01147        1.42729        2.75560
C          4.71835        1.54497        4.09216
S          3.20006        2.12440        4.42616
C          5.86090        1.18917        4.83805
C          6.86859        0.82979        3.96978
C          6.36198        0.88900        2.59257
C          6.95274        0.48220        1.44855
C          8.25447       -0.09101        1.44421
N          9.31239       -0.56466        1.44502
C          6.28145        0.54990        0.18797
N          5.73317        0.59828       -0.83024
C          8.06297        0.54364        4.67052
C          7.89392        0.68093        6.05803
S          6.27513        1.17856        6.44578
C          8.83915        0.32538        7.10235
C          8.58221       -0.13041        8.40699
C          9.50190       -1.20982        8.71309
C         10.49792       -1.26250        7.70003
S         10.54035        0.16278        6.78283
C         10.50496       -2.57725        7.13352
C          9.43128       -3.21898        7.67535
C          9.07200       -2.58465        8.99800
C          8.84712       -3.37571       10.11083
C          8.95170       -4.77490        9.52626
N          9.03845       -5.93565        9.04131
C          8.93575       -3.17167       11.61447
N          9.00928       -3.00240       12.86186
C          8.98516       -4.25098        6.80770
C         10.13293       -4.82581        6.23986
S         11.31790       -3.54381        6.02672
C         10.37687       -6.27352        6.13089
C         11.58762       -6.98505        6.15357
C         11.40084       -8.26148        6.77751
C         10.08353       -8.46462        7.13027
S          9.04243       -7.41768        6.36104
C         10.02026       -9.46323        8.13931
C         11.29205       -9.94391        8.35653
C         12.21535       -9.30725        7.41273
C         13.48775       -9.65496        7.14331
C         14.12990      -10.73349        7.81921
N         14.64835      -11.60545        8.38060
C         14.22292       -9.00106        6.12034
N         14.82163       -8.46674        5.28171
C         11.35517      -10.79154        9.48628
C         10.12801      -10.86510       10.16223
S          8.91295       -9.95697        9.28487
C          9.93347      -11.43177       11.47301
C          8.84491      -12.01504       12.00882
C          8.75179      -12.49508       13.40626
C          7.43128      -12.78320       13.80066
C          6.45028      -12.51137       12.72846
C          5.11251      -12.33409       12.81017
C          4.40509      -12.35351       14.04436
N          3.82555      -12.36668       15.05046
C          4.32094      -12.06147       11.65560
N          3.65280      -11.84210       10.73155
S          7.32954      -12.31690       11.21470
C          7.18894      -13.31652       15.07235
C          8.24574      -13.51539       15.96329
C          9.54941      -13.20768       15.58235
C          9.80722      -12.70782       14.30252
H         -1.07849        4.23840        2.59474
H         -2.88814        5.52766        1.50820
H         -2.93984        5.78964       -0.95334
H         -1.19584        4.78802       -2.35882
H          1.23027        3.68088        3.10552
H          4.03506        2.06646        0.88449
H          8.99350        0.22164        4.21586
H          7.58772       -0.08383        8.83759
H          8.06381       -4.80581        6.94877
H         12.55029       -6.51778        5.98609
H         12.25204      -11.25236        9.88424
H         10.81518      -11.34746       12.10535
H          6.19871      -13.60882       15.40628
H          8.04916      -13.92189       16.95426
H         10.36701      -13.37395       16.28051
H         10.83862      -12.50905       14.02683
