104

C        -14.19312       -0.59822        1.97823
C        -15.26727       -1.05029        1.20535
C        -15.21171       -2.28573        0.55363
C        -14.08881       -3.10405        0.67793
C        -13.03889       -2.68550        1.48785
C        -13.07666       -1.41298        2.13021
C        -11.77704       -1.19446        2.85836
C        -11.50392       -0.27294        3.81200
C        -12.45229        0.69417        4.24778
N        -13.21806        1.48949        4.60562
C        -10.25156       -0.23566        4.49223
N         -9.22035       -0.19502        5.02259
C        -10.88115       -2.29398        2.39150
C        -11.77835       -3.37420        1.90303
C        -11.70129       -4.70368        2.15649
C        -10.80753       -5.22921        3.13332
N        -10.16289       -5.67664        3.98843
C        -12.63399       -5.64996        1.64370
N        -13.37706       -6.42538        1.20297
C         -9.56924       -2.12664        2.10515
C         -8.80679       -3.03480        1.31732
C         -8.59869       -3.04664       -0.06735
C         -7.90085       -4.21140       -0.46254
C         -7.62424       -5.00599        0.62377
S         -7.88244       -4.28416        2.09068
C         -7.18118       -6.26039        0.17137
C         -7.09152       -6.24175       -1.19883
C         -7.48015       -4.91237       -1.67938
C         -7.43640       -4.43367       -2.93691
C         -6.97941       -5.23004       -4.02167
N         -6.61161       -5.88613       -4.90537
C         -7.82723       -3.09928       -3.23324
N         -8.15898       -2.01016       -3.45844
C         -6.71971       -7.50996       -1.70243
C         -6.60248       -8.46904       -0.68213
S         -6.98994       -7.74771        0.86224
C         -6.33037       -9.87236       -0.84223
C         -5.68833      -10.69162        0.01135
C         -5.43386      -12.09541       -0.25578
C         -4.69834      -12.71322        0.68415
C         -4.32418      -11.85560        1.79179
S         -4.99968      -10.25146        1.54649
C         -3.51799      -12.13947        2.83200
C         -2.72836      -13.33382        3.06009
C         -1.71365      -13.13409        3.92274
C         -1.64573      -11.76740        4.41772
S         -3.17019      -10.98396        4.11109
C         -0.55348      -11.19976        4.96269
C         -0.38262       -9.80936        5.29490
C          0.39846       -9.26354        6.32396
C          0.32546       -7.84973        6.34998
C         -0.48696       -7.36704        5.35176
S         -1.03088       -8.51668        4.29790
C         -0.58821       -5.96492        5.46617
C          0.17333       -5.55435        6.52970
C          0.82821       -6.72062        7.13412
C          1.72406       -6.74254        8.13998
C          2.09629       -5.55694        8.82962
N          2.36215       -4.58261        9.40136
C          2.34741       -7.94993        8.55768
N          2.86050       -8.93698        8.88884
C          0.13479       -4.14761        6.68368
C         -0.62396       -3.51055        5.70012
S         -1.36712       -4.74576        4.65852
C         -0.86959       -2.15222        5.30140
C         -0.89314       -0.97834        5.97265
C         -1.44321        0.26392        5.33298
C         -1.16114        0.74627        4.09586
C         -0.31378        0.05349        3.18210
N          0.36262       -0.51945        2.43505
C         -1.59923        2.02362        3.64135
N         -1.95015        3.06403        3.26504
C         -2.16019        1.00229        6.42035
C         -1.76128        0.47252        7.67818
C         -2.14656        1.13390        8.84271
C         -2.95470        2.27372        8.75739
C         -3.42475        2.72351        7.52353
C         -3.04514        2.07645        6.34891
C         -0.82728       -0.68894        7.42969
C          0.13892       -1.04395        8.30589
C         -0.02576       -0.95926        9.71859
N         -0.20230       -0.93105       10.86310
C          1.43394       -1.39675        7.83407
N          2.49150       -1.63772        7.41613
H        -14.27619        0.38461        2.42761
H        -16.15440       -0.42788        1.09947
H        -16.05380       -2.61314       -0.05376
H        -14.07699       -4.04573        0.13913
H         -9.04732       -1.20769        2.35828
H         -9.01088       -2.29106       -0.72626
H         -6.57241       -7.76284       -2.74584
H         -6.66244      -10.29485       -1.78879
H         -5.80353      -12.59044       -1.14387
H         -4.41750      -13.75527        0.63018
H         -2.90114      -14.26492        2.54026
H         -0.97944      -13.88586        4.17690
H          0.31382      -11.83135        5.14297
H          0.95180       -9.88734        7.01606
H          0.70417       -3.63861        7.43347
H         -1.16300       -2.10282        4.25212
H         -1.82573        0.83430        9.83315
H         -3.22030        2.81730        9.66277
H         -4.07358        3.59640        7.47572
H         -3.44238        2.45271        5.41213
