104

C          7.26363       -1.62423       -7.31098
C          6.21514       -1.00088       -6.65114
C          6.31591       -1.26397       -5.28148
C          7.39005       -2.04745       -4.91340
S          8.31669       -2.49493       -6.24225
C          7.51083       -2.32060       -3.51202
C          6.54713       -1.75306       -2.70554
Si         5.35243       -0.79124       -3.75991
C          3.62150       -1.44703       -3.69283
C          5.31259        1.03303       -3.44815
C          6.67554       -2.06231       -1.34837
C          7.77545       -2.89282       -1.14078
S          8.60437       -3.24038       -2.62991
C          8.23196       -3.43524        0.12000
C          8.93032       -4.62174        0.34803
C          9.16597       -4.78111        1.72073
C          8.68479       -3.75956        2.50820
S          7.92332       -2.57434        1.60279
C          8.95708       -3.86416        3.90862
C          9.68542       -4.96574        4.29261
Si        10.01204       -6.03879        2.80358
C          9.07721       -7.65076        2.87792
C         11.77864       -6.40528        2.42671
C         10.03818       -4.97207        5.64458
C          9.49640       -3.87398        6.31652
S          8.59297       -2.86273        5.20404
C          9.57888       -3.44820        7.68479
C          9.71817       -4.25268        8.74961
C          9.74598       -3.79030       10.12529
C          9.62973       -4.77920       11.03050
C          9.47637       -6.09237       10.43274
S          9.79790       -5.99117        8.70880
C          9.02411       -7.21666       11.01478
C          8.58641       -7.40104       12.38193
C          7.75632       -8.44986       12.53322
C          7.46657       -9.13049       11.28397
S          8.67028       -8.68760       10.10169
C          6.38782       -9.90610       11.07594
C          5.92788      -10.36830        9.79734
C          6.02454       -9.77230        8.53869
C          5.39847      -10.55158        7.56709
C          4.75929      -11.67475        8.04015
S          4.97325      -11.84172        9.70026
C          4.04469      -12.43429        7.04990
C          4.09418      -11.92428        5.76962
Si         5.16720      -10.40752        5.73212
C          4.37969       -8.86926        5.09955
C          6.73457      -10.73091        4.77675
C          3.40717      -12.66536        4.81039
C          2.86858      -13.81469        5.38258
S          3.15383      -13.86162        7.10216
C          2.22640      -14.89712        4.66390
C          2.17375      -16.24764        5.00569
C          1.68276      -16.99365        3.92344
C          1.34108      -16.24944        2.81629
S          1.50798      -14.60709        3.09805
C          1.00941      -16.99036        1.63636
C          1.09058      -18.36439        1.74442
Si         1.56479      -18.80345        3.49547
C          3.14771      -19.73590        3.68313
C          0.20805      -19.71905        4.36778
C          0.83731      -19.05799        0.55606
C          0.54747      -18.15311       -0.45354
S          0.59894      -16.50534        0.07963
H          7.47730       -1.61782       -8.37054
H          5.45778       -0.40836       -7.14974
H          3.03949       -1.11939       -4.55944
H          3.10413       -1.09994       -2.79271
H          3.61233       -2.54144       -3.67851
H          6.31408        1.46962       -3.51303
H          4.91421        1.25782       -2.45403
H          4.68067        1.54216       -4.18283
H          6.01329       -1.73143       -0.55692
H          9.22493       -5.30926       -0.43517
H          8.02903       -7.48511        3.14569
H          9.51237       -8.32203        3.62485
H          9.10119       -8.16204        1.91069
H         12.38370       -5.49393        2.39838
H         11.88236       -6.90081        1.45597
H         12.21706       -7.06834        3.17992
H         10.66135       -5.72319        6.11206
H          9.46380       -2.38011        7.86188
H          9.82356       -2.74283       10.38460
H          9.60222       -4.60901       12.09752
H          8.86316       -6.73169       13.18346
H          7.28391       -8.71601       13.46810
H          5.74225      -10.13189       11.92531
H          6.51680       -8.82624        8.34741
H          3.53793       -9.09531        4.43700
H          5.08988       -8.26367        4.52706
H          3.99910       -8.24553        5.91393
H          7.23726      -11.63023        5.14692
H          7.43172       -9.89316        4.86922
H          6.52081      -10.88062        3.71401
H          3.35972      -12.43537        3.75246
H          2.56947      -16.65119        5.92998
H          3.98925      -19.17910        3.25877
H          3.10160      -20.70479        3.17677
H          3.37336      -19.92172        4.73791
H         -0.74627      -19.19041        4.28037
H          0.43054      -19.83778        5.43222
H          0.07515      -20.71769        3.93950
H          0.86339      -20.13061        0.40944
H          0.31270      -18.36493       -1.48750
