120

C         -3.85945       -2.12801       -1.17749
C         -4.72128       -3.09067       -1.58667
C         -4.29961       -4.38605       -2.00695
N         -3.95849       -5.43344       -2.36804
C         -6.13428       -2.90934       -1.54107
N         -7.28417       -2.77160       -1.47908
C         -2.40361       -2.32701       -0.88601
C         -1.99511       -1.30236       -0.03087
C         -0.72159       -1.20042        0.51831
C          0.20521       -2.22135        0.22002
C         -0.18506       -3.24845       -0.65291
C         -1.47701       -3.30292       -1.24208
S          1.09147       -4.39658       -0.86359
C          2.10251       -3.56737        0.20419
C          1.54701       -2.41690        0.69529
Br         3.81321       -4.16734        0.67661
C         -3.09646       -0.36815        0.23143
O         -3.07099        0.49330        1.08394
C         -4.20726       -0.76151       -0.70061
C         -5.19473        0.05476       -1.12568
C         -5.44146        1.48330       -0.81105
C         -6.76429        1.97143       -0.79026
C         -6.99633        3.33518       -0.59567
C         -5.91938        4.20319       -0.33527
C         -4.61657        3.74781       -0.37515
C         -4.38616        2.40133       -0.66036
C         -6.40846        5.53542       -0.08604
C         -7.80268        5.56874       -0.27620
C         -8.31791        4.13598       -0.59292
C         -8.98423        4.14276       -2.00115
C         -9.57113        2.81418       -2.47612
C         -9.29455        3.63481        0.50340
C         -8.70210        3.50155        1.90541
C         -8.49513        6.77717       -0.15976
C         -7.79462        7.94277        0.21993
C         -6.40370        7.86815        0.44424
C         -5.70783        6.66780        0.29352
C         -8.50683        9.23429        0.31646
C         -8.15573       10.22849        1.14989
C         -8.80601       11.52482        1.16505
C         -8.17656       12.68982        0.94441
C         -8.81921       13.98249        0.89755
C         -8.03629       14.94937        0.39319
C         -6.72160       14.47700       -0.01633
S         -6.47797       12.83045        0.55995
C         -5.86021       15.11359       -0.83299
C         -6.06157       16.41475       -1.44469
C         -5.27994       16.62397       -2.51433
C         -4.41826       15.50043       -2.81613
S         -4.39696       14.36789       -1.49490
C         -3.83431       15.31653       -4.00814
C         -3.09710       14.12338       -4.45458
C         -1.71421       13.94110       -4.30871
C         -1.02852       12.80931       -4.88601
N          0.31424       12.71736       -4.78051
C          0.98933       13.70304       -4.13400
C          0.33244       14.77117       -3.57217
N         -1.01665       14.89810       -3.65914
C          1.01731       15.83794       -2.90737
N          1.59589       16.69791       -2.38502
C          2.41707       13.58758       -4.14789
N          3.57603       13.52248       -4.17578
C         -1.69466       11.79874       -5.61542
C         -3.09274       11.98353       -5.82343
C         -3.80763       13.16126       -5.21991
N         -5.11813       13.18628       -5.51941
S         -5.43404       11.86739       -6.45964
N         -3.91655       11.21543       -6.55983
C         -0.95091       10.67606       -6.25054
C         -1.30482        9.40469       -6.50340
C         -2.52296        8.62831       -6.27216
C         -3.24089        8.57985       -5.12574
C         -4.43157        7.82084       -5.00873
N         -5.43175        7.22347       -4.95623
C         -2.81853        9.27356       -3.94971
N         -2.44987        9.85191       -3.01485
C         -2.65275        7.69676       -7.42765
C         -1.39481        7.60195       -8.03392
C         -0.47195        8.60248       -7.46316
O          0.68637        8.77530       -7.77764
C         -1.11222        6.74401       -9.08711
C         -2.17533        5.97127       -9.60890
C         -3.45909        6.12918       -9.06035
C         -3.71954        6.98709       -7.96115
S         -4.61590        5.16072       -9.90632
C         -3.43402        4.52754      -10.93144
C         -2.17856        5.00946      -10.67671
Br        -3.80614        3.29424      -12.29173
H         -0.46862       -0.37827        1.18252
H         -1.70166       -4.12055       -1.91747
H          2.04868       -1.75043        1.38707
H         -5.91485       -0.31109       -1.85540
H         -7.59879        1.28968       -0.92705
H         -3.78040        4.41758       -0.20994
H         -3.35135        2.08568       -0.74787
H         -8.25975        4.47989       -2.75523
H         -9.79929        4.87903       -2.01763
H         -8.80728        2.04123       -2.57294
H        -10.02115        2.93364       -3.46673
H        -10.35560        2.45003       -1.80725
H         -9.68419        2.64495        0.23918
H        -10.16234        4.30518        0.55547
H         -8.00055        2.66243        1.95663
H         -9.49986        3.29996        2.62756
H         -8.18332        4.40872        2.22471
H         -9.56235        6.82007       -0.35493
H         -5.83483        8.75278        0.72387
H         -4.63946        6.63346        0.47784
H         -9.33481        9.36915       -0.37508
H         -7.31372       10.12402        1.83157
H         -9.87985       11.51369        1.33442
H         -9.84595       14.13408        1.20125
H         -8.37690       15.96399        0.24279
H         -6.81029       17.12019       -1.11294
H         -5.33333       17.50611       -3.13716
H         -3.98774       16.05380       -4.79252
H          0.03901       10.98485       -6.60047
H         -0.11193        6.69226       -9.51014
H         -4.73548        7.07741       -7.58821
H         -1.29445        4.71389      -11.22885
