90

C         -5.73600        6.02831        1.61193
C         -6.28264        5.97531        2.85326
C         -5.50864        6.08496        4.04532
N         -4.88783        6.17884        5.02134
C         -7.68420        5.85502        3.08746
N         -8.82416        5.75152        3.29219
C         -4.28188        6.22186        1.29024
C         -4.15803        6.48763       -0.07474
C         -2.95472        6.75675       -0.71475
C         -1.77167        6.69414        0.05362
C         -1.87363        6.38057        1.41678
C         -3.11990        6.14789        2.05911
S         -0.30892        6.30845        2.15215
C          0.46451        6.65409        0.69191
C         -0.40365        6.86848       -0.34442
Br         2.32707        6.71988        0.50346
C         -5.45639        6.37277       -0.75178
O         -5.65884        6.47586       -1.94680
C         -6.45132        6.03773        0.31463
C         -7.72137        5.77566       -0.03196
N         -8.30007        5.80510       -1.29182
C         -9.61231        5.60727       -1.61985
S        -10.89401        5.90819       -0.48699
C        -12.07831        5.52079       -1.61474
N        -13.45134        5.58950       -1.24022
O        -14.12124        4.56537       -1.42196
O        -13.86779        6.67376       -0.81487
C        -11.57849        5.13184       -2.82842
C        -10.14401        5.20594       -2.84629
C         -9.41951        4.86628       -4.04183
C         -8.20363        4.29768       -4.11151
C         -7.54609        3.93564       -5.33596
C         -6.27254        3.36537       -5.50199
C         -5.51006        2.88399       -4.38659
N         -4.96839        2.41827       -3.47875
C         -5.95327        3.23274       -6.86427
C         -6.99522        3.50829       -7.67844
S         -8.33636        4.09395       -6.89432
S         -6.72133        3.16917       -9.30288
C         -5.15930        2.69367       -8.89929
C         -4.84668        2.79869       -7.59244
C         -3.49629        2.48991       -7.31596
C         -2.78896        2.71413       -6.09156
N         -2.15248        2.94314       -5.14336
C         -2.85418        1.96255       -8.46083
S         -3.92279        2.12511       -9.83809
C         -1.51409        1.42653       -8.55813
C         -0.87317        0.87507       -9.60617
C          0.52512        0.47488       -9.55170
C          1.10396        0.39597      -10.76241
C          0.19055        0.73719      -11.83462
S         -1.45454        0.60341      -11.22731
C          0.49457        1.31176      -13.01233
C          1.79930        1.75920      -13.45664
C          1.72785        2.82173      -14.27995
C          0.36068        3.23862      -14.56538
S         -0.72200        1.94826      -14.09809
C          0.01467        4.46664      -15.00409
C         -1.32412        4.98377      -15.15570
S         -2.61959        4.00058      -15.74982
C         -3.87102        5.10582      -15.31766
C         -3.28584        6.32784      -15.04775
C         -1.82676        6.27004      -15.00746
C         -1.04295        7.41679      -14.78867
F          0.29391        7.42286      -14.76397
C         -1.77986        8.60710      -14.64768
F         -1.10777        9.76118      -14.50122
C         -3.19727        8.65382      -14.65955
F         -3.79751        9.84572      -14.50372
C         -4.00318        7.51785      -14.83862
F         -5.33764        7.60493      -14.83151
C         -5.24233        4.71115      -15.41432
C         -5.66154        3.46274      -15.15933
H         -2.92543        6.96947       -1.78025
H         -3.11283        5.89186        3.10873
H         -0.09243        7.10459       -1.35510
H         -8.44012        5.46455        0.71454
H         -7.62822        6.02103       -2.03783
H        -12.19857        4.81737       -3.66108
H         -9.97262        5.05669       -4.95933
H         -7.67142        4.07835       -3.18838
H         -0.92634        1.50337       -7.64261
H          1.04711        0.29983       -8.62152
H          2.14261        0.15194      -10.92764
H          2.72436        1.33431      -13.09438
H          2.59208        3.35198      -14.65569
H          0.82111        5.18153      -15.15256
H         -5.98075        5.46052      -15.68794
H         -4.99451        2.66360      -14.84669
H         -6.71061        3.20161      -15.25599
