96

C          8.63015       -6.61163       -8.73455
C          7.99932       -7.52756       -7.99607
C          7.07900       -8.51641       -8.48775
C          6.65699       -9.36822       -7.54146
C          7.23212       -9.11981       -6.22944
S          8.23840       -7.66546       -6.28181
C          7.04960       -9.85924       -5.11898
C          6.23001      -11.05081       -4.98270
C          6.09313      -11.47332       -3.71521
C          6.74613      -10.60728       -2.75894
S          7.79820       -9.48041       -3.57299
C          6.51355      -10.61474       -1.43607
N          6.83288       -9.71045       -0.43517
C          6.95649       -8.35128       -0.51235
S          8.06331       -7.56850        0.56535
C          7.83246       -6.07548       -0.18659
N          8.58189       -4.93847        0.23820
O          9.15786       -4.29612       -0.64771
O          8.55443       -4.65959        1.44303
C          6.89501       -6.09952       -1.18538
C          6.31604       -7.40406       -1.31634
C          5.24786       -7.63304       -2.25261
C          4.23424       -8.50553       -2.11600
C          3.25491       -8.69747       -3.13493
S          2.06770       -9.93111       -2.96618
C          3.06925       -8.04021       -4.33720
C          1.88479       -8.43024       -5.05293
C          1.30619       -7.91596       -6.25438
C          2.03804       -6.82131       -7.01651
C          3.04740       -7.37838       -8.01207
C          0.04630       -8.43901       -6.70034
C         -0.66476       -7.86602       -7.92239
C         -0.35475       -8.62499       -9.20377
C          1.25721       -9.47071       -4.39078
C          0.07086      -10.03531       -4.88040
S         -0.76204      -11.36999       -4.21034
C         -0.55900       -9.52019       -5.99611
C         -1.79472      -10.21108       -6.21514
C         -1.99952      -11.30172       -5.39586
N         -3.02214      -12.20680       -5.40382
C         -4.04974      -12.33600       -6.30061
S         -3.85638      -12.02350       -7.99689
C         -5.47757      -12.32127       -8.32114
N         -5.98493      -12.09042       -9.63732
O         -7.06327      -11.48803       -9.71244
O         -5.32375      -12.52204      -10.59022
C         -6.17755      -12.75548       -7.22636
C         -5.34233      -12.79638       -6.05333
C         -5.87338      -13.24106       -4.79340
C         -5.54470      -12.80268       -3.56598
C         -6.19143      -13.29648       -2.36088
C         -7.48945      -13.17945       -2.05770
C         -8.10964      -13.75087       -0.88498
C         -9.44514      -13.63935       -0.88004
C         -9.98482      -12.96303       -2.04989
S         -8.66802      -12.34026       -3.03499
C        -11.28429      -12.85634       -2.38688
C        -12.40352      -13.43754       -1.66695
C        -13.58717      -13.27047       -2.27293
C        -13.49711      -12.52854       -3.50423
S        -11.86492      -12.03414       -3.84056
C        -14.51827      -12.24593       -4.31585
H          8.49079       -6.54922       -9.80734
H          9.32075       -5.90336       -8.28333
H          6.77197       -8.56242       -9.52336
H          5.96373      -10.17283       -7.73987
H          5.74575      -11.53448       -5.81879
H          5.47894      -12.31349       -3.42241
H          5.91409      -11.42061       -1.01667
H          7.17107      -10.15667        0.41482
H          6.61142       -5.22973       -1.76643
H          5.30192       -7.01883       -3.14851
H          4.16038       -9.10726       -1.21378
H          3.72231       -7.24698       -4.67649
H          1.35439       -6.13129       -7.51528
H          2.57274       -6.18882       -6.29851
H          3.75273       -6.59634       -8.31057
H          2.55688       -7.73112       -8.92166
H          3.61945       -8.21409       -7.59678
H         -0.45814       -6.79984       -8.04959
H         -1.74898       -7.90053       -7.75414
H          0.71100       -8.61317       -9.43678
H         -0.88592       -8.17214      -10.04629
H         -0.66286       -9.67340       -9.13393
H         -2.48610       -9.91312       -6.98874
H         -3.06479      -12.80005       -4.57888
H         -7.23148      -13.01313       -7.25027
H         -6.66963      -13.98108       -4.86902
H         -4.78892      -12.04324       -3.40673
H         -5.51918      -13.80196       -1.66716
H         -7.54300      -14.24045       -0.10533
H        -10.06265      -14.03105       -0.08418
H        -12.29361      -13.98440       -0.74237
H        -14.52231      -13.65733       -1.89439
H        -15.52815      -12.57185       -4.09407
H        -14.37084      -11.68098       -5.23234
