91

C         -6.81977      -14.91167       -5.36680
C         -6.45278      -14.45740       -4.16662
C         -7.30496      -14.40402       -3.01098
C         -6.69112      -13.91975       -1.92386
C         -5.29991      -13.54553       -2.14150
S         -4.85469      -13.85303       -3.82221
C         -4.46763      -13.04548       -1.20629
C         -4.81424      -12.81982        0.18642
C         -3.80583      -12.35736        0.93408
C         -2.58692      -12.15743        0.19197
S         -2.78563      -12.57271       -1.49080
C         -1.45230      -11.70504        0.74182
N         -0.24809      -11.40255        0.14028
C          0.91113      -10.99947        0.74168
S          1.30108      -11.42640        2.37570
C          2.78925      -10.64797        2.29336
N          3.65798      -10.67271        3.42282
O          4.81451      -11.06043        3.21513
O          3.20076      -10.27034        4.49953
C          3.04019      -10.05777        1.08239
C          1.93844      -10.23808        0.18044
C          1.85808       -9.67753       -1.14267
C          2.79053       -8.90897       -1.73130
C          2.64189       -8.36273       -3.04722
C          3.19457       -7.17753       -3.55857
C          3.84376       -6.24059       -2.69173
N          4.29706       -5.50573       -1.91833
C          2.93872       -7.07066       -4.93821
C          2.10475       -8.02988       -5.39723
S          1.71111       -9.18834       -4.27290
S          1.65664       -7.86116       -7.00977
C          2.67476       -6.52663       -7.11292
C          3.32712       -6.21878       -5.97167
C          4.28095       -5.18913       -6.12897
C          5.20423       -4.72015       -5.14292
N          5.98759       -4.33866       -4.37846
C          4.29604       -4.74089       -7.46044
S          3.03942       -5.53009       -8.38772
C          5.12825       -3.73398       -8.11532
C          5.57550       -3.67326       -9.44783
C          5.34667       -4.70440      -10.41021
N          5.10749       -5.51151      -11.21218
C          6.10049       -2.39218       -9.71605
C          6.13055       -1.57646       -8.64198
S          5.59187       -2.29219       -7.24183
S          6.54435        0.02095       -8.98719
C          6.48170       -0.36399      -10.62484
C          6.37186       -1.68466      -10.88484
C          6.40356       -1.98408      -12.25557
C          6.66916       -3.23581      -12.89428
N          6.88664       -4.21047      -13.48346
C          6.02906       -0.83496      -12.96260
S          6.39662        0.58638      -11.99106
C          5.49992       -0.61178      -14.26832
C          4.69958       -1.44545      -14.95169
C          4.53996       -1.14741      -16.41762
O          4.59684       -0.07086      -16.97149
C          4.41280       -2.46968      -17.05583
C          4.60012       -2.74519      -18.39719
C          4.76410       -4.08370      -18.76778
C          4.72044       -5.11336      -17.77499
C          4.97860       -6.43809      -18.15328
C          5.26853       -6.74104      -19.47985
C          5.28790       -5.74337      -20.44458
C          5.03347       -4.42037      -20.10033
F          5.57170       -6.04319      -21.71915
F          5.54224       -8.00850      -19.81716
C          4.46406       -4.79240      -16.42859
C          4.29443       -3.46332      -16.07393
C          4.14746       -2.79225      -14.75870
C          3.41856       -3.27400      -13.72182
C          3.16144       -2.50395      -12.55267
N          2.98710       -1.90014      -11.57690
C          2.78411       -4.55144      -13.76808
N          2.24120       -5.57518      -13.82705
H         -7.82334      -15.28061       -5.55043
H         -6.12663      -14.93010       -6.20172
H         -8.33707      -14.72579       -3.02827
H         -7.19443      -13.81439       -0.97403
H         -5.79495      -13.01182        0.59607
H         -3.88869      -12.13704        1.98944
H         -1.45154      -11.50122        1.81035
H         -0.30669      -11.43708       -0.87713
H          3.95180       -9.50963        0.87527
H          0.93762       -9.87651       -1.68608
H          3.70361       -8.65257       -1.20047
H          5.78511        0.32582      -14.75020
H          4.69621       -1.93165      -19.11109
H          4.98129       -7.24436      -17.42387
H          5.07394       -3.66299      -20.87849
H          4.47628       -5.57760      -15.67520
