81

C        -12.18305        2.29829        4.21692
C        -13.25363        2.36874        5.10366
F        -13.97094        3.49832        5.17445
C        -13.57933        1.28448        5.90566
F        -14.61681        1.35719        6.75024
C        -12.83572        0.11131        5.84233
C        -11.74602        0.01895        4.96498
C        -11.41389        1.12843        4.12946
C        -10.33347        1.04170        3.22472
C         -9.58096       -0.12315        3.15911
C         -9.94196       -1.19685        3.98665
C        -10.99326       -1.15542        4.88858
C         -9.12450       -2.38017        3.68685
O         -9.12212       -3.41161        4.32395
C         -8.34768       -2.01988        2.45504
C         -8.42994       -0.55172        2.31144
C         -7.54431        0.25199        1.67040
C         -7.66683        1.66816        1.66290
N         -7.77850        2.82567        1.65897
C         -6.38683       -0.24925        1.00070
N         -5.45253       -0.66095        0.44692
C         -7.89622       -2.90966        1.56050
C         -7.95545       -4.34946        1.64658
C         -7.52068       -5.11349        0.63574
C         -7.58213       -6.54810        0.61781
C         -7.04387       -7.34113        1.55582
C         -7.08608       -8.79484        1.43415
C         -8.15583       -9.48661        0.83973
C         -8.18061      -10.88030        0.69818
F         -9.24464      -11.38966        0.05594
C         -7.17279      -11.74198        1.17220
C         -6.05337      -11.10376        1.77995
C         -6.01212       -9.59244        1.92562
N         -4.89125       -9.16094        2.53008
S         -3.97840      -10.50026        2.87088
N         -4.95425      -11.70134        2.27711
C         -7.20018      -13.19826        1.05180
C         -8.35008      -13.88610        1.08182
C         -8.41244      -15.31151        0.91644
C         -9.57865      -15.96257        0.79540
C         -9.66699      -17.37903        0.54658
C         -8.97299      -18.08081       -0.35992
C         -8.92992      -19.56320       -0.17707
O         -9.70928      -20.27016        0.42639
C         -7.67178      -19.98924       -0.80670
C         -7.14132      -21.26623       -0.75705
C         -5.90355      -21.48397       -1.36591
C         -5.20581      -20.39308       -1.96864
C         -3.96099      -20.63054       -2.56929
C         -3.43151      -21.91715       -2.59487
C         -4.11709      -22.97541       -2.01529
C         -5.34287      -22.76700       -1.39334
F         -3.60663      -24.21325       -2.05546
F         -2.25248      -22.12731       -3.19563
C         -5.77249      -19.10198       -1.97466
C         -7.03213      -18.90367       -1.42720
C         -7.94277      -17.72560       -1.34934
C         -7.94440      -16.66491       -2.19563
C         -9.03197      -15.74294       -2.27230
N         -9.91354      -14.99691       -2.39069
C         -6.90715      -16.43655       -3.14578
N         -6.04740      -16.24964       -3.90253
H        -11.96200        3.16791        3.60322
H        -13.12107       -0.72077        6.48081
H        -10.13092        1.88732        2.57401
H        -11.22750       -2.03103        5.48927
H         -7.47954       -2.55467        0.62082
H         -8.37655       -4.81469        2.53564
H         -7.13372       -4.66709       -0.27815
H         -8.04791       -6.96152       -0.27432
H         -6.51555       -6.92782        2.41255
H         -9.01719       -8.94160        0.45664
H         -6.24080      -13.69890        0.94477
H         -9.30358      -13.37414        1.20166
H         -7.46501      -15.83932        0.84176
H        -10.52806      -15.43871        0.90258
H        -10.34010      -17.90393        1.22753
H         -7.68898      -22.06136       -0.25768
H         -3.39658      -19.82876       -3.03895
H         -5.85323      -23.61719       -0.94857
H         -5.20727      -18.28703       -2.41719
