116

C         -9.27232       -0.98284       -1.93963
C         -9.79539       -1.30695       -0.72970
C        -10.64487       -2.42973       -0.54337
N        -11.37931       -3.31799       -0.41652
C         -9.61675       -0.54056        0.45854
N         -9.48459        0.06117        1.44247
C         -9.50952       -1.72316       -3.22979
C         -8.88856       -1.02358       -4.26248
C         -8.87009       -1.43426       -5.59405
C         -9.54864       -2.62438       -5.93031
C        -10.21892       -3.31732       -4.91374
C        -10.20490       -2.88647       -3.56008
S        -11.02817       -4.71090       -5.54120
C        -10.46650       -4.41192       -7.10477
C         -9.68791       -3.28941       -7.19646
Br       -10.87277       -5.50756       -8.56907
C         -8.29654        0.22213       -3.77017
O         -7.93276        1.12172       -4.49916
C         -8.39686        0.17983       -2.26855
C         -7.76446        1.02497       -1.43533
C         -6.82348        2.03143       -1.80017
S         -6.79220        3.47895       -0.88118
C         -5.68581        4.29797       -1.95206
C         -5.11717        3.34692       -2.78691
C         -5.76517        2.04837       -2.68203
N         -5.38775        0.93587       -3.37201
C         -4.37846        1.21042       -4.23230
O         -3.93285        0.19206       -5.06033
C         -4.43555       -1.09525       -4.70190
C         -3.57784       -2.13462       -5.39876
C         -3.73002        2.46703       -4.32972
O         -2.66781        2.53643       -5.22014
C         -1.65663        3.45111       -4.80486
C         -0.33319        2.97489       -5.38024
N         -4.05696        3.59418       -3.61704
C         -5.37880        5.68788       -1.72165
C         -6.29348        6.63511       -1.42932
C         -6.00776        7.92455       -0.82339
C         -7.03699        8.39122       -0.08445
C         -8.19185        7.50710       -0.11479
S         -8.02792        6.46476       -1.53768
C         -9.16143        7.32738        0.80430
C         -9.37515        7.98581        2.07748
C        -10.25878        7.34897        2.87320
C        -10.81290        6.12577        2.29449
S        -10.32263        6.02792        0.64511
C        -11.53389        5.20866        2.96957
C        -11.99960        3.89609        2.54900
S        -12.46195        2.81780        3.84151
C        -12.64499        1.40683        2.84474
C        -12.50456        1.78154        1.52100
C        -12.17707        3.20582        1.35076
N        -11.98361        3.76482        0.12086
C        -11.98759        2.86244       -0.88270
O        -11.59528        3.26884       -2.14958
C        -12.03605        4.58451       -2.48602
C        -11.56315        4.89564       -3.89741
C        -12.25869        1.49199       -0.70564
O        -12.08879        0.68734       -1.82356
C        -12.89571       -0.48317       -1.83800
C        -14.23993       -0.19967       -2.46018
N        -12.56575        0.88781        0.48309
C        -12.76035        0.16292        3.55159
C        -13.36503       -0.99090        3.22667
C        -14.19439       -1.53280        2.15267
C        -15.41770       -1.06497        1.78445
C        -16.34743       -1.87180        1.04269
N        -17.08878       -2.55258        0.47293
C        -15.95881        0.11276        2.37467
N        -16.43763        1.02653        2.90736
C        -13.86469       -2.97388        2.04123
C        -13.34229       -3.37893        3.26940
C        -13.05208       -2.19065        4.10216
O        -12.63249       -2.19752        5.24059
C        -13.11946       -4.71102        3.59437
C        -13.36846       -5.68042        2.58966
C        -13.76431       -5.24648        1.31256
C        -14.02993       -3.89054        1.01577
S        -13.87557       -6.56950        0.20800
C        -13.56359       -7.69136        1.42789
C        -13.29953       -7.11651        2.64284
Br       -13.58352       -9.54205        1.13948
H         -8.35022       -0.84511       -6.34514
H        -10.75182       -3.48441       -2.84316
H         -9.23714       -2.94029       -8.11784
H         -7.93676        0.98318       -0.36930
H         -5.47999       -1.19975       -5.02061
H         -4.35939       -1.26332       -3.62090
H         -3.92082       -3.14560       -5.16255
H         -2.53455       -2.03369       -5.08082
H         -3.59638       -1.99454       -6.48420
H         -1.55859        3.48741       -3.71294
H         -1.89514        4.44895       -5.18758
H         -0.11428        1.95435       -5.04624
H          0.48456        3.62934       -5.06596
H         -0.36779        2.95027       -6.47418
H         -4.32144        5.93410       -1.67065
H         -5.04321        8.40510       -0.89925
H         -7.00727        9.29951        0.49922
H         -8.85044        8.88670        2.36552
H        -10.51118        7.68425        3.87163
H        -11.71310        5.44119        4.02051
H        -11.62111        5.33676       -1.81322
H        -13.13088        4.62642       -2.45180
H        -10.47116        4.83496       -3.96089
H        -11.87612        5.89841       -4.20382
H        -11.96438        4.16852       -4.61102
H        -13.00519       -0.94339       -0.85247
H        -12.37964       -1.21133       -2.46950
H        -14.76398        0.58955       -1.91529
H        -14.84871       -1.10701       -2.45705
H        -14.11215        0.14035       -3.49258
H        -12.19824        0.14711        4.49029
H        -12.77382       -4.99436        4.58460
H        -14.33571       -3.59946        0.01495
H        -13.07570       -7.68087        3.53963
