86

C         -1.75430       -7.38310       -4.88364
C         -1.45600       -6.09552       -4.69297
C         -2.19503       -4.97815       -5.21273
C         -1.69785       -3.78951       -4.83790
C         -0.53311       -3.88449       -3.97001
S         -0.09245       -5.58291       -3.74489
C          0.11205       -2.85979       -3.37673
C         -0.19746       -1.44823       -3.51099
C          0.58281       -0.64475       -2.77172
C          1.57684       -1.35254       -1.99565
S          1.44181       -3.07411       -2.23783
C          2.44899       -0.74550       -1.17518
C          3.48018       -1.34991       -0.33353
C          4.51994       -2.04770       -0.77523
C          5.57606       -2.68627        0.08142
C          5.47957       -2.61573        1.53090
C          4.51782       -1.91080        2.13110
S          3.30090       -0.95224        1.37309
N          6.54056       -3.30814       -0.55962
C          6.13188       -3.13483       -1.89954
C          4.98528       -2.42869       -2.04661
S          4.56293       -2.26226       -3.65773
C          5.87593       -3.31487       -4.17757
C          6.68054       -3.61981       -3.07883
C          5.90714       -3.73008       -5.55819
C          6.86070       -4.46575       -6.15035
C          6.74802       -5.03637       -7.48266
C          7.63980       -6.01665       -7.72448
C          8.51624       -6.27973       -6.59616
S          8.37830       -4.96023       -5.45215
C          9.21184       -7.40160       -6.33014
C          9.27271       -8.61747       -7.12187
C          9.48280       -9.71475       -6.37003
C          9.54596       -9.39842       -4.95565
S          9.96623       -7.71684       -4.76145
C          9.14252      -10.21822       -3.96665
C          8.87105       -9.83502       -2.58034
C          9.50724      -10.35759       -1.53186
C          9.31823       -9.98608       -0.09491
C          8.29880       -9.00030        0.26082
C          7.52587       -8.42128       -0.66148
S          7.54754       -8.69668       -2.36451
N         10.11691      -10.59669        0.75638
C         10.86847      -11.43555       -0.09736
C         10.51666      -11.31406       -1.40845
S         11.36362      -12.34476       -2.40246
C         12.31920      -12.93689       -1.04544
C         11.91234      -12.33545        0.14501
C         13.35940      -13.85870       -1.35888
C         13.85211      -14.83727       -0.58334
C         14.89408      -15.71906       -1.06367
C         15.09550      -16.78800       -0.28391
C         14.20666      -16.84378        0.86283
S         13.33354      -15.31707        1.01104
C         13.98343      -17.93346        1.62260
C         14.54645      -19.25256        1.38122
C         13.98986      -20.22334        2.11628
C         12.98321      -19.73827        3.02569
S         12.84080      -18.00320        2.96393
C         12.22385      -20.50189        3.81104
H         -2.61288       -7.68854       -5.46839
H         -1.14511       -8.17073       -4.44955
H         -3.07085       -5.09951       -5.83493
H         -2.14533       -2.85069       -5.12994
H         -0.99492       -1.07253       -4.13524
H          0.47698        0.43060       -2.74092
H          2.37590        0.33509       -1.05639
H          6.20485       -3.18177        2.09975
H          4.49370       -1.92098        3.22536
H          7.57788       -4.21886       -3.09453
H          5.01494       -3.49984       -6.14273
H          5.97685       -4.73686       -8.17869
H          7.66131       -6.59494       -8.63541
H          9.11661       -8.63369       -8.19043
H          9.51032      -10.72423       -6.75361
H          8.85379      -11.23643       -4.21237
H          8.19743       -8.76676        1.31410
H          6.78741       -7.69852       -0.32102
H         12.35821      -12.51250        1.11439
H         13.76478      -13.77661       -2.36543
H         15.43341      -15.54029       -1.98346
H         15.82400      -17.55123       -0.51357
H         15.29688      -19.45078        0.62947
H         14.24360      -21.27034        2.02753
H         12.31391      -21.58268        3.81056
H         11.47740      -20.06694        4.46880
