114

C         -4.10706      -16.89864       -2.74684
C         -4.78816      -16.15958       -3.66081
C         -4.65361      -16.34105       -5.06059
N         -4.54989      -16.48506       -6.21157
C         -5.70857      -15.12448       -3.30750
N         -6.46583      -14.26435       -3.05647
C         -3.15521      -18.01966       -3.04966
C         -2.79412      -18.63634       -1.85079
C         -1.88374      -19.67897       -1.73224
C         -1.26412      -20.13444       -2.90959
C         -1.62692      -19.54548       -4.13046
C         -2.57714      -18.49360       -4.22270
S         -0.75586      -20.25969       -5.44158
C          0.10480      -21.27337       -4.40220
C         -0.25000      -21.13344       -3.08775
Br         1.42234      -22.46674       -4.98921
C         -3.44462      -18.00090       -0.71162
O         -3.34164      -18.38843        0.43424
C         -4.19429      -16.82603       -1.26296
C         -4.76114      -15.92219       -0.45353
C         -4.76719      -15.94238        1.00072
C         -5.73418      -15.40969        1.75893
C         -5.71956      -15.34355        3.19960
C         -6.68885      -14.56203        3.69912
C         -7.52531      -13.95922        2.67552
S         -7.18371      -14.69176        1.11749
C         -8.35031      -12.90831        2.81786
C         -8.57035      -12.14233        4.02887
C         -9.14015      -10.94904        3.80462
C         -9.43206      -10.71885        2.41042
S         -9.18468      -12.15138        1.46179
C         -9.79306       -9.55404        1.86171
N        -10.01595       -9.29577        0.52367
C        -10.37769       -8.13098       -0.07546
S        -11.30991       -8.22353       -1.52745
C        -11.54548       -6.55444       -1.54409
N        -12.41316       -5.98252       -2.51930
O        -13.37830       -5.34213       -2.08334
O        -12.11483       -6.14204       -3.70888
C        -10.86739       -5.88831       -0.55501
C        -10.12674       -6.80380        0.26531
C         -9.26058       -6.35339        1.31987
C         -8.11258       -6.94908        1.69186
C         -7.25186       -6.51668        2.77644
C         -6.63809       -5.33593        2.80152
C         -5.69080       -4.85659        3.85074
C         -5.41130       -5.71024        5.00575
C         -5.95768       -6.92050        5.14272
S         -7.02452       -7.71057        4.03825
N         -5.17757       -3.66166        3.64185
C         -5.79302       -3.28568        2.42533
C         -6.63548       -4.23841        1.93544
S         -7.39459       -3.75684        0.53006
C         -6.61103       -2.20301        0.57962
C         -5.74056       -2.11463        1.66566
C         -6.95423       -1.24985       -0.41946
C         -6.06325       -0.34678       -0.85760
C         -6.37857        0.69799       -1.84350
C         -5.38439        1.10834       -2.75201
C         -5.65369        2.17338       -3.60525
C         -6.90132        2.83532       -3.55309
C         -7.89379        2.42451       -2.68171
C         -7.62472        1.36036       -1.82067
C         -6.87925        3.97322       -4.44278
C         -5.62461        4.04516       -5.07559
C         -4.76469        2.84144       -4.66610
C         -3.39084        3.33294       -4.11860
C         -3.42753        4.27828       -2.91161
C         -4.56553        1.90820       -5.90509
C         -5.83586        1.31391       -6.53323
C         -5.28501        5.12110       -5.88803
C         -6.22096        6.14614       -6.05528
C         -7.49406        6.04454       -5.46299
C         -7.83160        4.95196       -4.65833
C         -5.86191        7.35193       -6.80007
C         -6.04868        7.46862       -8.11912
H         -1.63772      -20.09290       -0.75798
H         -2.78708      -18.08240       -5.20184
H          0.19361      -21.69675       -2.27534
H         -5.26845      -15.05562       -0.86502
H         -3.91140      -16.39324        1.49796
H         -4.97480      -15.84821        3.79979
H         -6.80834      -14.36535        4.75422
H         -8.25444      -12.47601        5.00639
H         -9.32962      -10.21264        4.57274
H         -9.90887       -8.68954        2.50773
H        -10.08079      -10.15228       -0.02919
H        -10.87920       -4.81038       -0.43917
H         -9.55244       -5.42870        1.81486
H         -7.78671       -7.86370        1.19689
H         -4.73660       -5.30307        5.74992
H         -5.70494       -7.49071        6.03503
H         -5.15033       -1.24175        1.90779
H         -7.96307       -1.27798       -0.82557
H         -5.04037       -0.34921       -0.49064
H         -4.41840        0.61244       -2.77249
H         -8.84810        2.93738       -2.63527
H         -8.39159        1.07871       -1.10164
H         -2.85329        3.86136       -4.91826
H         -2.76484        2.47320       -3.85191
H         -3.92341        5.22659       -3.14330
H         -2.40295        4.52293       -2.60688
H         -3.92542        3.82827       -2.04830
H         -3.90730        1.06991       -5.64232
H         -4.04849        2.46955       -6.69480
H         -6.24976        0.50865       -5.91725
H         -5.60120        0.88224       -7.51312
H         -6.61809        2.06121       -6.69500
H         -4.30173        5.18655       -6.34379
H         -8.22337        6.83802       -5.60178
H         -8.80533        4.89928       -4.18484
H         -5.43553        8.16626       -6.22051
H         -6.47530        6.66685       -8.71285
H         -5.77566        8.38583       -8.63170
