111

C         -3.83769       -1.96881       -0.67233
C         -2.78102       -2.29762        0.09388
C         -2.18018       -3.59671        0.08461
N         -1.69612       -4.65311        0.07287
C         -2.13859       -1.36797        0.95604
N         -1.61131       -0.60375        1.65929
C         -4.49117       -2.82891       -1.71706
C         -5.27349       -2.00591       -2.53142
C         -6.05562       -2.46469       -3.58706
C         -6.04707       -3.84901       -3.85697
C         -5.25153       -4.68617       -3.05920
C         -4.47298       -4.19591       -1.97612
S         -5.36997       -6.33040       -3.58177
C         -6.45540       -5.93128       -4.81154
C         -6.75770       -4.59723       -4.85681
Br        -7.17424       -7.18953       -5.99896
C         -5.20188       -0.60726       -2.09267
O         -5.62321        0.34206       -2.71793
C         -4.48330       -0.63748       -0.77506
C         -4.62341        0.32271        0.15569
C         -5.40793        1.55772        0.01823
C         -4.80264        2.71938       -0.47690
C         -5.55501        3.88699       -0.56785
C         -6.89540        3.91085       -0.12074
C         -7.49975        2.76488        0.37419
C         -6.75236        1.58342        0.43436
C         -7.41414        5.25407       -0.24079
C         -6.41555        6.08341       -0.78340
C         -5.13308        5.28135       -1.08960
C         -3.91188        5.81229       -0.28700
C         -3.50277        7.26253       -0.54618
C         -4.91689        5.25670       -2.62880
C         -3.68793        4.50367       -3.13025
C         -6.66069        7.43489       -0.99355
C         -7.87925        7.99202       -0.58809
C         -8.87710        7.14927       -0.06686
C         -8.65270        5.77611        0.10168
C         -8.15634        9.42875       -0.74851
C         -7.21209       10.38002       -0.66585
C         -7.47632       11.79516       -0.86067
C         -6.56397       12.77928       -0.80510
C         -6.83316       14.17548       -1.06450
C         -5.73170       14.94350       -1.10701
C         -4.49935       14.20592       -0.89006
S         -4.87848       12.53852       -0.44652
C         -3.23498       14.63979       -1.05419
C         -2.78388       15.95202       -1.47448
C         -1.46586       16.01530       -1.73352
C         -0.77032       14.75624       -1.53956
S         -1.84967       13.57663       -0.86073
C          0.50603       14.51452       -1.88904
C          1.26707       13.24956       -1.78643
C          2.26317       12.94938       -2.69557
N          3.03926       11.84335       -2.64575
C          2.82388       11.00815       -1.61953
N          1.87711       11.15808       -0.68643
C          1.13841       12.29385       -0.78938
C          3.72087        9.86382       -1.54950
C          4.17882        9.13223       -0.52589
C          4.01781        9.08190        0.93720
C          3.80987       10.11681        1.78722
C          3.65556        9.94976        3.19655
N          3.52100        9.82088        4.34182
C          3.86665       11.48187        1.38013
N          3.97809       12.60822        1.11544
C          4.44270        7.70062        1.36030
C          5.06013        7.08276        0.26878
C          4.96427        7.92084       -0.92723
O          5.42226        7.64564       -2.01850
C          5.69090        5.84436        0.30980
C          5.72214        5.17043        1.54650
C          5.07505        5.75540        2.64600
C          4.41026        7.00969        2.56780
S          5.23002        4.76058        4.05194
C          6.16146        3.62174        3.22436
C          6.34439        3.92571        1.90286
Br         6.87746        2.09405        4.03796
H         -6.66098       -1.77442       -4.16745
H         -3.90470       -4.90685       -1.38616
H         -7.44355       -4.15631       -5.57072
H         -4.19646        0.22785        1.14975
H         -3.76087        2.70499       -0.77771
H         -8.52755        2.77815        0.72180
H         -7.22291        0.68530        0.82736
H         -3.03784        5.18220       -0.49272
H         -4.10089        5.71060        0.79017
H         -3.36828        7.46946       -1.61161
H         -2.56102        7.48917       -0.03735
H         -4.23270        7.96590       -0.13703
H         -4.84528        6.28384       -3.00877
H         -5.79972        4.82311       -3.11918
H         -2.76055        4.97393       -2.79204
H         -3.67688        4.50078       -4.22516
H         -3.68382        3.45810       -2.81907
H         -5.90717        8.05623       -1.46417
H         -9.84069        7.56327        0.22183
H         -9.43853        5.14709        0.50579
H         -9.19376        9.68863       -0.93332
H         -6.18302       10.09531       -0.45329
H         -8.50493       12.05038       -1.10304
H         -7.83505       14.54646       -1.23101
H         -5.75644       16.00395       -1.31285
H         -3.45267       16.79316       -1.59200
H         -0.96607       16.90999       -2.08060
H          1.06782       15.32523       -2.35272
H          2.49659       13.60714       -3.52872
H          0.42977       12.41236        0.02419
H          4.04652        9.59377       -2.55444
H          6.16421        5.43270       -0.57815
H          3.92887        7.39143        3.46040
H          6.90918        3.31065        1.21192
