119

C         -7.57980       -2.26509        2.08884
C         -6.69425       -2.47342        3.09949
C         -6.60161       -3.70757        3.80775
N         -6.50828       -4.70655        4.39262
C         -5.75176       -1.50086        3.54716
N         -4.97037       -0.72106        3.92159
C         -8.53732       -3.27912        1.52679
C         -9.17333       -2.72734        0.41336
C        -10.14191       -3.37869       -0.34567
C        -10.50914       -4.68489        0.03840
C         -9.87401       -5.25851        1.14873
C         -8.88529       -4.57347        1.90326
S        -10.46453       -6.85572        1.44494
C        -11.53874       -6.76818        0.14652
C        -11.47926       -5.57928       -0.52955
Br       -12.69881       -8.16264       -0.31956
C         -8.71219       -1.35953        0.16675
O         -9.07126       -0.67392       -0.76754
C         -7.75298       -1.02973        1.27565
C         -7.23970        0.20384        1.43411
C         -7.41842        1.40680        0.54418
S         -7.34347        2.94479        1.50718
C         -6.19754        3.78415        0.34904
C         -6.18262        2.93910       -0.96328
C         -6.22504        1.52508       -0.38517
C         -4.84037        3.22922       -1.67965
O         -4.23741        4.29599       -1.58685
N         -4.35657        2.25475       -2.50682
N         -7.34670        3.35603       -1.82032
C         -7.64985        2.90391       -3.13901
C         -8.32518        3.80244       -4.02250
C         -8.80650        3.44367       -5.34666
N         -9.46833        4.37534       -6.07567
C         -9.62780        5.62917       -5.58070
C         -9.13870        5.97423       -4.35384
N         -8.49117        5.06816       -3.56483
C         -9.25898        7.29934       -3.81947
N         -9.36747        8.38334       -3.41666
C        -10.31579        6.55326       -6.44237
N        -10.86433        7.31390       -7.12845
C         -8.60725        2.15952       -5.91387
C         -7.88441        1.25511       -5.08396
C         -7.46398        1.60563       -3.69052
N         -6.91892        0.54935       -3.07250
S         -6.88620       -0.72384       -4.09880
N         -7.47168        0.02163       -5.43227
C         -9.06576        1.70594       -7.26807
C         -9.39534        0.34641       -7.52708
C         -9.65277       -0.09798       -8.81894
C         -9.76785        0.83724       -9.85838
C         -9.52601        2.18104       -9.64079
C         -9.13578        2.59632       -8.36374
C        -10.04000        0.14969      -11.09102
C         -9.99704       -1.23779      -10.86553
C         -9.79431       -1.54130       -9.36475
C         -8.48168       -2.36945       -9.22634
C         -8.07170       -2.81052       -7.82785
C        -11.04313       -2.23377       -8.75482
C        -11.43455       -3.57536       -9.37576
C        -10.02997       -2.12258      -11.93522
C        -10.15350       -1.61552      -13.23294
C        -10.31618       -0.22918      -13.42610
C        -10.24531        0.66228      -12.35737
C        -10.09698       -2.56405      -14.35064
C         -9.61907       -2.23169      -15.55846
C         -9.48704       -3.16407      -16.64337
C        -10.43420       -3.89292      -17.24637
C        -11.89218       -4.06157      -17.10115
C        -12.80459       -3.16876      -16.64072
C        -14.18030       -3.48665      -16.44250
N        -15.29554       -3.74512      -16.25729
C        -12.50774       -1.79623      -16.39859
N        -12.34940       -0.65619      -16.25297
C        -12.22680       -5.36174      -17.77279
C        -11.08030       -5.84944      -18.40782
C         -9.93201       -4.97497      -18.15304
O         -8.80494       -5.14408      -18.57069
C        -11.04360       -6.99522      -19.19653
C        -12.25684       -7.68739      -19.39889
C        -13.41526       -7.20552      -18.77415
C        -13.41694       -6.05818      -17.94334
S        -14.79083       -8.17006      -19.17243
C        -13.86765       -9.19283      -20.14451
C        -12.54078       -8.85648      -20.18424
Br       -14.59687      -10.64309      -21.07746
H        -10.60843       -2.88317       -1.19312
H         -8.45434       -5.08709        2.75322
H        -12.09567       -5.34048       -1.38804
H         -6.57731        0.41133        2.26553
H         -8.36325        1.41501       -0.00078
H         -5.21153        3.79270        0.83082
H         -6.51476        4.82059        0.20524
H         -5.28101        1.32697        0.14852
H         -6.25572        0.71906       -1.09936
H         -4.78042        1.33690       -2.57876
H         -3.46947        2.41779       -2.96406
H         -7.39396        4.38461       -1.85164
H         -9.40725       -0.38861       -6.72892
H         -9.57496        2.89950      -10.45267
H         -8.86545        3.64356       -8.25493
H         -7.64234       -1.80997       -9.66211
H         -8.56162       -3.28507       -9.82621
H         -7.77471       -1.96248       -7.21247
H         -7.19979       -3.47155       -7.89447
H         -8.86196       -3.36530       -7.31643
H        -11.91511       -1.56996       -8.82968
H        -10.88726       -2.39163       -7.68056
H        -11.86401       -3.44043      -10.37341
H        -12.20442       -4.06294       -8.76917
H        -10.58792       -4.26314       -9.45021
H         -9.91143       -3.18888      -11.77007
H        -10.46991        0.18235      -14.42076
H        -10.32232        1.72981      -12.53200
H        -10.40589       -3.58346      -14.13376
H         -9.22697       -1.23526      -15.75639
H         -8.44748       -3.27843      -16.96281
H        -10.11592       -7.32062      -19.66033
H        -14.35843       -5.75502      -17.50538
H        -11.79700       -9.39953      -20.75451
