74

C         -2.85298        2.30905        0.07820
C         -2.80042        1.00631        0.35624
C         -3.88312        0.07423        0.20103
C         -3.52557       -1.19173        0.45295
C         -2.11870       -1.34508        0.79993
S         -1.34968        0.23337        0.92699
C         -1.46145       -2.51383        0.91246
C         -2.05782       -3.82272        0.72760
C         -1.16437       -4.81452        0.66376
C          0.19946       -4.37030        0.80921
S          0.28842       -2.66888        1.14616
C          1.23740       -5.19414        0.62818
N          2.58954       -4.95935        0.58008
C          3.58926       -5.87028        0.39990
S          5.12200       -5.51832        1.11363
C          5.75855       -7.01970        0.66416
N          7.07659       -7.41309        1.08814
O          7.47710       -8.51123        0.67913
O          7.70886       -6.65180        1.83131
C          4.89159       -7.75592       -0.11154
C          3.63137       -7.09475       -0.27209
C          2.53482       -7.69528       -0.98494
C          2.30920       -7.61032       -2.30854
C          1.13431       -8.16728       -2.87531
S          0.99475       -9.80192       -3.41440
C         -0.63766       -9.60868       -4.01930
C         -1.00497       -8.33746       -3.72570
C         -0.04450       -7.54899       -3.12197
N         -0.38406       -6.25249       -2.84484
C         -1.69166       -6.19285       -3.32248
C         -2.47407       -4.99866       -3.28378
N         -3.10605       -4.02840       -3.24015
C         -2.10498       -7.44153       -3.84084
C         -1.37079      -10.69340       -4.63765
C         -0.90707      -11.71668       -5.47681
C          0.42558      -11.70412       -6.00836
N          1.49221      -11.61171       -6.43668
C         -1.92683      -12.67320       -5.68890
C         -3.11756      -12.29353       -5.17088
S         -3.08137      -10.84244       -4.35471
S         -4.37775      -13.38073       -5.42537
C         -3.28192      -14.42557       -6.16172
C         -2.02371      -13.94405       -6.26901
C         -1.13341      -14.86171       -6.87172
C          0.24635      -14.65585       -7.17481
N          1.36894      -14.53366       -7.45199
C         -1.78219      -16.08321       -7.13283
S         -3.47831      -15.97269       -6.74034
C         -1.22827      -17.34017       -7.60249
S          0.39671      -17.86450       -7.22169
C          0.25602      -19.36482       -8.06704
C         -1.00164      -19.43828       -8.53854
C         -1.81305      -18.34885       -8.30070
N         -3.09112      -18.42983       -8.78493
C         -3.10474      -19.70216       -9.35252
C         -4.27257      -20.26512       -9.94559
N         -5.23586      -20.70891      -10.41389
C         -1.84537      -20.33017       -9.23794
H         -3.75548        2.77356       -0.29856
H         -1.98113        2.94157        0.20341
H         -4.87249        0.37056       -0.11752
H         -4.21135       -2.02064        0.34710
H         -3.11654       -3.98478        0.58403
H         -1.42497       -5.83950        0.44364
H          1.00301       -6.24416        0.50207
H          2.85087       -4.00511        0.83807
H          5.13268       -8.73441       -0.51488
H          1.83892       -8.26417       -0.37054
H          3.00478       -7.10348       -2.97339
H          0.19014       -5.53829       -2.41157
H         -3.08355       -7.64932       -4.25926
H          1.07736      -20.06468       -8.12648
H         -3.83035      -17.74133       -8.70496
H         -1.59896      -21.32116       -9.59923
