75

C         -4.82209       -1.67261       -3.27224
S         -3.63165       -1.66315       -2.05481
C         -3.81301       -3.34873       -1.68465
C         -4.79381       -3.89436       -2.50682
C         -5.36900       -2.91858       -3.40896
C         -6.36956       -3.17618       -4.34508
C         -6.79298       -4.52886       -4.33214
C         -7.81533       -4.89457       -5.27551
N         -8.63595       -5.16445       -6.05097
C         -6.24072       -5.51898       -3.44130
C         -6.73620       -6.87598       -3.46810
N         -7.12280       -7.95904       -3.46016
C         -5.21022       -5.23707       -2.49882
C         -2.99704       -3.97141       -0.64826
O         -3.15797       -5.29902       -0.31009
C         -2.24868       -5.66915        0.65530
C         -1.52209       -4.53754        0.98072
C         -1.97563       -3.47423        0.15498
C         -1.42497       -2.15525        0.17289
N         -0.94975       -1.09689        0.20154
C         -2.11150       -6.99629        1.15809
C         -3.15977       -7.83640        1.17287
C         -3.04249       -9.17198        1.66637
S         -3.32263       -9.47407        3.32708
C         -3.03842      -11.21296        3.25684
C         -2.68851      -11.51172        1.93539
C         -2.79378      -10.36393        1.02129
C         -2.58908      -10.43127       -0.37078
C         -2.31284      -11.74371       -0.82300
N         -2.02183      -11.89630       -2.23710
O         -2.90882      -11.57295       -3.03375
O         -0.88092      -12.27740       -2.52352
C         -2.16835      -12.85645        0.04281
N         -1.93702      -14.18808       -0.50441
O         -2.69786      -14.56616       -1.40167
O         -1.05179      -14.86368        0.03251
C         -2.27790      -12.77034        1.45667
C         -3.20739      -12.00568        4.51689
S         -3.22434      -11.14941        6.04705
C         -3.41765      -12.52031        7.05342
C         -3.43620      -13.65292        6.26235
C         -3.38351      -13.35728        4.81820
C         -3.52550      -14.38651        3.87087
C         -3.53314      -15.69734        4.41081
N         -3.53761      -16.77686        3.44003
O         -4.45508      -16.76616        2.61476
O         -2.58361      -17.55806        3.45859
C         -3.56502      -15.96794        5.79521
N         -3.75206      -17.32214        6.27210
O         -2.76842      -18.06359        6.27860
O         -4.88340      -17.60144        6.68969
C         -3.56639      -14.95858        6.78273
C         -3.52655      -12.39846        8.50753
O         -3.65130      -13.51228        9.31110
C         -3.73964      -13.15826       10.63471
C         -3.66839      -11.77937       10.68875
C         -3.54016      -11.29977        9.36363
C         -3.44533       -9.92068        9.01401
N         -3.38464       -8.79481        8.75594
C         -3.87835      -14.07063       11.71338
C         -3.95102      -15.39133       11.51115
H         -5.04760       -0.76287       -3.81314
H         -6.78429       -2.43337       -5.01837
H         -4.80817       -6.01047       -1.85559
H         -0.73801       -4.48208        1.72517
H         -1.13467       -7.29791        1.53107
H         -4.13938       -7.51044        0.83329
H         -2.62166       -9.58067       -1.04407
H         -2.01554      -13.61846        2.06776
H         -3.68174      -14.24483        2.81507
H         -3.67834      -15.21066        7.83036
H         -3.70884      -11.18120       11.59019
H         -3.92850      -13.67991       12.72652
H         -3.90883      -15.83467       10.52166
H         -4.05899      -16.07024       12.35219
