83

C         -4.32025       -0.60709       -0.94890
S         -3.90422       -2.24130       -0.69652
C         -2.41660       -1.84288        0.09386
C         -2.30902       -0.45259        0.19642
C         -3.36733        0.25954       -0.45409
N         -3.46865        1.68984       -0.62715
O         -4.53141        2.12601       -1.08533
O         -2.47090        2.36287       -0.35540
N         -1.24565        0.17773        0.92384
O         -0.09747       -0.00619        0.50767
O         -1.57557        0.79426        1.94417
C         -1.50126       -2.85994        0.54158
C         -1.88109       -4.07756        0.96262
C         -0.98940       -5.01259        1.57975
S         -0.40572       -6.36260        0.68519
C         -0.19322       -7.31686        2.10940
C         -0.16542       -6.47584        3.21746
C         -0.55708       -5.12047        2.89833
O         -0.77065       -4.16269        3.84265
C         -0.12219       -2.91877        3.57410
O          0.07244       -6.99454        4.45411
C          0.86033       -6.17450        5.30840
C          0.05173       -8.75454        2.01630
S          1.42915       -9.40514        2.83421
C          1.26685      -10.98795        2.16293
C          0.19336      -10.99015        1.28917
C         -0.60421       -9.77631        1.33295
O         -1.78613       -9.76329        0.65203
C         -2.73050       -8.74373        0.89358
O         -0.07930      -12.09469        0.54377
C         -0.58881      -11.80445       -0.76147
C          2.23847      -12.03594        2.49752
S          2.88378      -12.12679        4.11382
C          4.00755      -13.38498        3.75365
C          3.89274      -13.70092        2.40911
C          2.79042      -13.06997        1.75335
N          2.37632      -13.48588        0.45271
O          1.57121      -14.42485        0.42080
O          2.95165      -12.97116       -0.50881
N          4.78208      -14.60435        1.74879
O          4.64268      -15.80524        1.99376
O          5.62558      -14.08908        1.00738
C          4.92200      -13.90999        4.73233
C          4.64621      -13.99610        6.05111
C          5.55571      -14.55426        7.01434
S          7.26940      -14.42312        6.81987
C          7.59497      -15.23403        8.27609
C          6.44670      -15.59654        8.94410
C          5.26657      -15.19255        8.22596
C          3.89907      -15.45272        8.80138
C          3.89810      -16.57946        9.86376
C          2.52643      -16.61463       10.51366
F          1.55273      -16.69203        9.57988
F          2.38142      -17.67657       11.32768
F          2.30717      -15.49873       11.24247
C          5.02236      -16.35762       10.90875
C          5.03663      -17.38711       11.97832
N          5.07729      -18.18532       12.80634
C          6.41130      -16.35335       10.23860
H         -5.23911       -0.35879       -1.46803
H         -0.45014       -2.58525        0.58632
H         -2.91883       -4.39754        0.91718
H          0.76084       -2.81398        4.21065
H         -0.82188       -2.11212        3.81681
H          0.21279       -2.78974        2.54461
H          1.38251       -5.36003        4.79617
H          1.62484       -6.81156        5.76628
H          0.23225       -5.77609        6.11123
H         -2.52403       -7.89664        0.24143
H         -2.81678       -8.45598        1.94421
H         -3.70847       -9.11684        0.56924
H         -0.23862      -10.84248       -1.15715
H         -1.68260      -11.84098       -0.74801
H         -0.23892      -12.58019       -1.44903
H          5.86238      -14.31170        4.35767
H          3.68146      -13.67201        6.43290
H          8.61948      -15.40745        8.58009
H          3.20468      -15.71909        7.99500
H          3.53937      -14.51581        9.24537
H          4.06467      -17.54103        9.35850
H          4.86658      -15.37865       11.37985
H          6.73290      -17.38277       10.02924
H          7.14809      -15.93202       10.93474
