86

C         -3.84211       -2.32309      -15.35920
O         -3.00440       -2.27471      -14.27110
C         -2.98732       -3.52985      -13.79793
C         -3.78102       -4.38093      -14.54771
C         -4.34827       -3.60083      -15.56222
C         -3.70015       -5.71035      -13.97727
S         -4.47549       -7.05241      -14.48037
C         -2.80159       -5.58258      -12.84871
C         -2.39324       -4.26877      -12.75066
O         -1.59156       -4.06921      -11.69958
C         -1.42554       -5.31036      -11.08513
C         -2.17646       -6.26238      -11.79716
C         -0.62754       -5.44698       -9.91228
C          0.05651       -6.56861       -9.62852
C          0.91201       -6.77575       -8.44054
C          1.06565       -8.03883       -7.87478
C          0.44671       -9.30011       -8.26624
O         -0.44857       -9.46903       -9.06159
O          1.08589      -10.25940       -7.55617
C          2.06092       -9.74332       -6.76799
O          2.99435      -10.36522       -6.30868
C          1.90067       -8.29898       -6.78856
C          2.54493       -7.29835       -6.04196
C          2.40389       -6.02113       -6.62877
C          1.69521       -5.80302       -7.81377
C          2.00717       -4.45245       -8.26874
O          1.81257       -3.96990       -9.36379
O          2.65406       -3.85823       -7.24651
C          2.88347       -4.70102       -6.21708
O          3.37849       -4.36705       -5.16005
C          3.21710       -7.55571       -4.72996
S          4.72050       -6.79869       -4.33600
C          4.60237       -7.16859       -2.64707
C          3.60281       -8.09837       -2.45364
C          2.92069       -8.42144       -3.67921
O          2.01368       -9.42180       -3.79584
C          2.63841      -10.68691       -3.49339
C          2.95145      -10.90754       -2.01711
C          2.52869       -9.74421       -1.13409
O          3.39603       -8.61113       -1.21330
C          5.62551       -6.58070       -1.75668
C          5.81548       -5.19944       -1.68273
C          4.84969       -4.13593       -1.89420
O          3.64520       -4.25571       -1.95303
O          5.55561       -2.98029       -1.84762
C          6.86265       -3.17921       -1.53970
O          7.71416       -2.32299       -1.45484
C          7.02552       -4.61313       -1.33975
C          8.13206       -5.36799       -0.94545
C          7.86895       -6.74714       -0.80420
C          6.65299       -7.32236       -1.17259
C          6.73236       -8.74570       -0.87852
O          5.87168       -9.59469       -0.97465
O          7.97672       -8.96829       -0.41147
C          8.74800       -7.85874       -0.42115
O          9.93904       -7.86984       -0.20566
C          9.47448       -4.80547       -0.78152
O         10.24865       -5.42483        0.17223
C         11.50697       -5.03870       -0.07515
C         11.56240       -4.07244       -1.06042
C         10.23850       -3.86635       -1.48344
C         12.95386       -3.79987       -1.36502
S         13.54548       -2.74644       -2.45832
C         13.69737       -4.77261       -0.59096
C         12.82050       -5.48189        0.20400
O         13.42708       -6.48758        0.84657
C         14.76016       -6.46931        0.43786
C         14.95074       -5.36536       -0.41248
C         15.67467       -7.48329        0.83719
C         16.71416       -7.84050        0.07178
H         -3.97415       -1.38080      -15.87481
H         -5.03010       -3.90082      -16.34578
H         -2.26336       -7.31096      -11.54428
H         -0.57334       -4.56009       -9.28911
H         -0.02324       -7.41597      -10.30860
H          1.94945      -11.46749       -3.83694
H          3.56005      -10.81875       -4.07680
H          4.02818      -11.09337       -1.91658
H          2.46213      -11.83212       -1.68877
H          1.48894       -9.44539       -1.31075
H          2.57731      -10.08388       -0.09305
H          9.91057       -3.24700       -2.30796
H         15.88016       -5.10805       -0.90163
H         15.47190       -8.01203        1.76416
H         16.92004       -7.38263       -0.89066
H         17.37696       -8.64179        0.38336
