132

C          1.52095       -0.89894        1.89389
N          1.08171       -0.47371        3.13885
C          1.15187       -1.20069        4.38605
C          1.81676       -2.56138        4.30852
C          0.52948        0.82177        3.08230
O          0.07031        1.48555        3.99384
C          0.66884        1.17950        1.64847
C          1.29018        0.05664        0.99745
C          1.45662        0.36869       -0.42415
O          1.93909       -0.34915       -1.27612
N          0.93464        1.67361       -0.51147
C          0.90576        2.37803       -1.77811
C         -0.38704        2.14605       -2.54275
C          0.45418        2.12588        0.72740
C         -0.14194        3.42470        0.89759
C         -0.61369        3.91801        2.05046
C         -1.18029        5.22159        2.17610
N         -0.70999        6.17025        3.08128
C          0.44305        6.02325        3.95052
C          1.73808        6.44707        3.27300
C         -1.45519        7.36788        3.00337
O         -1.32435        8.40085        3.62503
C         -2.44997        7.05886        1.95655
C         -2.22224        5.71529        1.50690
C         -3.22833        5.39004        0.48144
O         -3.37597        4.33321       -0.09735
N         -3.94673        6.59605        0.36690
C         -5.08663        6.73817       -0.51619
C         -6.40059        6.41516        0.17513
C         -3.47311        7.55652        1.26136
C         -4.03654        8.85838        1.42445
C         -4.02658        9.81134        0.47858
C         -4.53184       11.20536        0.64712
C         -4.43890       11.87077        1.88789
C         -4.88533       13.20158        1.99646
N         -4.79929       13.87136        3.17714
C         -4.27255       13.22270        4.23568
C         -3.85613       11.92308        4.14378
N         -3.93385       11.25097        2.98296
C         -5.44154       13.81255        0.86802
C         -5.52240       13.17141       -0.37471
C         -5.04675       11.84977       -0.49499
N         -5.11435       11.21354       -1.69667
C         -5.64885       11.87970       -2.74145
C         -6.14035       13.15216       -2.60941
N         -6.08334       13.80796       -1.43585
C         -5.96265       15.17479        0.98460
N         -7.25227       15.54308        1.38999
C         -8.34054       14.69790        1.84373
C         -8.47578       13.33697        1.18050
C         -7.38536       16.95262        1.41229
O         -8.31911       17.64588        1.76374
C         -6.08680       17.41549        0.89670
C         -5.26142       16.26677        0.67099
C         -3.95943       16.72814        0.16221
O         -3.00837       16.04068       -0.14682
N         -4.12467       18.13070        0.12093
C         -3.10445       19.00970       -0.41952
C         -3.16502       19.13485       -1.93401
C         -5.39596       18.50421        0.56334
C         -5.87270       19.85022        0.63540
C         -5.31670       20.79560        1.40717
C         -5.81076       22.13813        1.45043
N         -6.25749       22.75710        2.61319
C         -6.30981       22.16452        3.93427
C         -5.03752       22.40739        4.73074
C         -6.71607       24.06630        2.35782
O         -7.17372       24.88221        3.12989
C         -6.50603       24.21389        0.90060
C         -5.93893       22.98205        0.42448
C         -5.72568       23.10494       -1.02448
O         -5.24184       22.27611       -1.76918
N         -6.21964       24.39712       -1.30023
C         -6.18516       24.94367       -2.64317
C         -4.89734       25.69860       -2.93104
C         -6.65619       25.04155       -0.13409
C         -7.23434       26.36006       -0.13295
C         -7.18421       27.21280        0.89887
H          1.98071       -1.85961        1.72170
H          0.12699       -1.30434        4.76387
H          1.68355       -0.56649        5.10682
H          1.28166       -3.21828        3.61510
H          1.82561       -3.04000        5.29169
H          2.85221       -2.46926        3.96456
H          1.74074        2.01465       -2.38897
H          1.08168        3.44660       -1.61919
H         -0.56219        1.07753       -2.70597
H         -0.34126        2.63658       -3.52038
H         -1.24773        2.54812       -1.99936
H         -0.20749        4.05347        0.01388
H         -0.59086        3.35851        2.97575
H          0.51724        4.98804        4.29952
H          0.28748        6.65071        4.83543
H          1.94544        5.83489        2.38940
H          2.58039        6.34072        3.96445
H          1.69118        7.49290        2.95231
H         -4.95284        6.05457       -1.36228
H         -5.11325        7.74925       -0.93106
H         -6.41529        5.37758        0.52356
H         -7.23520        6.55554       -0.51894
H         -6.56643        7.06261        1.04211
H         -4.41981        9.04977        2.42334
H         -3.61912        9.58524       -0.50609
H         -4.19721       13.78148        5.16016
H         -3.44926       11.37538        4.98568
H         -5.66875       11.35475       -3.68920
H         -6.59288       13.68566       -3.43702
H         -9.27532       15.24512        1.66712
H         -8.24910       14.58488        2.92971
H         -8.47868       13.42751        0.09007
H         -9.40822       12.85221        1.48300
H         -7.67305       12.66029        1.47960
H         -2.12716       18.60102       -0.13944
H         -3.17507       20.00012        0.03580
H         -2.98402       18.17026       -2.41881
H         -2.39861       19.83631       -2.28112
H         -4.13974       19.50364       -2.26839
H         -6.76938       20.06457        0.05528
H         -4.45940       20.56847        2.03539
H         -6.51271       21.09190        3.84847
H         -7.15197       22.60973        4.47664
H         -4.15422       22.03944        4.19948
H         -5.09394       21.89490        5.69653
H         -4.89219       23.47569        4.92225
H         -7.05860       25.58340       -2.81026
H         -6.26513       24.11224       -3.35227
H         -4.78378       26.55938       -2.26461
H         -4.89491       26.06347       -3.96320
H         -4.02177       25.05336       -2.79778
H         -7.76552       26.67322       -1.02578
H         -6.68483       26.97392        1.83312
H         -7.66887       28.18095        0.84240
