97

C          0.35960        1.56370       -1.02175
S          0.28798        0.28328        0.06103
C         -1.12600       -0.48550       -0.70032
C         -1.55143        0.34432       -1.75971
C         -0.62372        1.45775       -1.95440
N         -0.71852        2.38702       -2.93105
C         -1.77274        2.17445       -3.73101
N         -2.72819        1.22263       -3.62802
C         -2.67430        0.28353       -2.62352
C         -3.90203       -0.41310       -2.43679
N         -4.94454       -0.91895       -2.32180
C         -1.51286       -1.78969       -0.10109
S         -0.82418       -2.30554        1.45276
C         -2.31057       -2.83374       -0.49289
C         -3.07487       -3.20683       -1.65242
O         -2.84522       -2.82321       -2.78343
N         -3.90793       -4.21616       -1.23179
C         -4.97684       -4.78468       -2.02596
C         -4.46588       -5.43454       -3.29000
C         -3.44361       -4.82201       -0.09080
O         -3.77350       -5.91754        0.34042
C         -2.45448       -3.90739        0.43264
C         -1.56862       -3.86767        1.47584
C         -1.17044       -4.79389        2.48739
C         -1.76345       -5.98367        2.65483
C         -1.40997       -6.96322        3.63321
N         -1.25688       -8.32385        3.35556
C         -1.38949       -8.96002        2.05890
C         -0.08227       -8.99860        1.28723
C         -1.00188       -9.06429        4.52886
O         -0.80325      -10.25200        4.68305
C         -1.07984       -8.03331        5.57838
C         -1.31780       -6.77112        4.94776
C         -1.44440       -5.74710        5.98862
O         -1.64099       -4.55953        5.83295
N         -1.27345       -6.49191        7.17524
C         -1.27709       -5.81395        8.45556
C         -2.67944       -5.61963        9.02511
C         -1.07546       -7.85581        6.89944
C         -0.89308       -8.92246        7.84424
C         -1.38039       -8.91700        9.08467
C         -1.19042       -9.91827       10.07655
C         -0.76858       -9.57913       11.30777
C         -0.83871      -10.75733       12.15616
C         -1.33933      -11.83642       11.28725
C         -1.53357      -11.32339       10.06272
C         -1.60848      -13.18217       11.61863
N         -1.83789      -14.28696       11.88679
C         -0.54403      -10.76793       13.47080
C         -0.73280      -11.90213       14.36098
C         -0.37512      -11.53144       15.60373
C          0.05924      -10.14655       15.57043
C         -0.02750       -9.68567       14.31496
C          0.37433       -8.37540       13.94283
N          0.69609       -7.30659       13.64339
C         -0.48260      -12.38093       16.75628
C          0.08911      -13.59307       16.81346
C         -0.01364      -14.47693       17.92875
S         -0.98209      -14.13959       19.32579
C         -0.57183      -15.61162       20.09673
C          0.28083      -16.35806       19.31978
C          0.59490      -15.70767       18.08721
N          1.42256      -16.27204       17.16675
C          1.87841      -17.48557       17.57878
N          1.63004      -18.17006       18.73523
C          0.80120      -17.60260       19.65632
C          0.51790      -18.27983       20.87642
N          0.25926      -18.79308       21.88662
H          1.10913        2.33787       -0.93823
H         -1.88846        2.87694       -4.55345
H         -5.67818       -3.97871       -2.26317
H         -5.51709       -5.52425       -1.42026
H         -4.01466       -4.69190       -3.95389
H         -5.28841       -5.90970       -3.82908
H         -3.70607       -6.18756       -3.06004
H         -0.32548       -4.52873        3.12423
H         -2.61227       -6.28859        2.06727
H         -2.16521       -8.45467        1.47480
H         -1.73398       -9.98879        2.21750
H          0.27105       -7.98901        1.05606
H         -0.21885       -9.53623        0.34306
H          0.69950       -9.50802        1.85964
H         -0.83779       -4.81945        8.31173
H         -0.61857       -6.33311        9.15818
H         -3.27380       -4.95542        8.39103
H         -2.61937       -5.17765       10.02494
H         -3.24018       -6.55500        9.10461
H         -0.34250       -9.79436        7.48851
H         -1.96503       -8.08859        9.45208
H         -0.49905       -8.57380       11.58918
H         -1.92439      -11.84006        9.19741
H         -1.13964      -12.86899       14.11072
H          0.41602       -9.60617       16.43229
H         -1.06247      -11.96571       17.57586
H          0.68187      -13.94495       15.96865
H         -0.98764      -15.83207       21.07057
H          2.54445      -17.98928       16.88011
