89

C          9.52851       -1.77454       -6.74495
O          9.05659       -1.43025       -5.67676
C          9.74059       -1.01200       -7.94390
C         10.09959       -1.76831       -9.02908
C         10.35512       -0.97762      -10.16786
C         10.15446        0.36554       -9.88120
S          9.65698        0.62789       -8.24329
C         10.09409       -3.16675       -8.65545
C         10.03288       -4.21996       -9.49536
C         10.07803       -4.05928      -10.91365
N         10.12047       -3.92536      -12.06151
C          9.83856       -5.55424       -9.03377
N          9.68078       -6.62957       -8.64088
C          9.98982       -3.17251       -7.15441
C         10.43208       -4.12076       -6.31174
C         10.50784       -3.99161       -4.89573
C         11.60270       -3.59744       -4.11918
C         11.34035       -3.76054       -2.74135
C         10.09851       -4.31629       -2.53431
S          9.19001       -4.54456       -3.90622
C          9.95782       -4.60932       -1.16339
C         11.09303       -4.22202       -0.49639
C         12.01001       -3.59015       -1.44815
C         13.16251       -2.93852       -1.19017
C         13.93186       -2.35532       -2.23202
N         14.55561       -1.88818       -3.09602
C         13.63004       -2.75096        0.14002
N         13.98991       -2.58059        1.23009
C         11.03509       -4.58453        0.87071
C          9.85758       -5.28559        1.18801
S          8.81993       -5.34603       -0.22310
C          9.38115       -5.79705        2.50446
C         10.09234       -5.64049        3.71764
C          9.42591       -5.65434        4.99642
N         10.12825       -5.61443        6.14868
C         11.48720       -5.64237        6.06851
C         12.13339       -5.58457        4.85554
N         11.43975       -5.53663        3.68555
C         13.55821       -5.67335        4.72569
N         14.71085       -5.77754        4.63080
C         12.18813       -5.86250        7.29962
N         12.78057       -6.08485        8.27334
C          8.03801       -5.77899        5.09346
C          7.46475       -6.50236        4.00922
C          8.12877       -6.46865        2.66206
N          7.36969       -7.07162        1.73065
S          5.98764       -7.60919        2.45696
N          6.25452       -7.08673        4.00055
C          7.16214       -4.61368        5.39118
C          5.93444       -4.56793        6.06174
C          5.04482       -3.71659        5.34330
C          5.67811       -3.10014        4.28587
S          7.33082       -3.23349        4.30752
C          4.71100       -2.64509        3.36611
C          3.45985       -2.89467        3.88109
C          3.59739       -3.52456        5.19780
C          2.62178       -3.87249        6.05732
C          2.92011       -4.46006        7.31602
N          3.17138       -4.93147        8.34743
C          1.25123       -3.63516        5.76216
N          0.13658       -3.42547        5.51752
C          2.44164       -2.56353        2.95786
C          2.98127       -2.25106        1.70998
S          4.72264       -2.16305        1.77434
C          2.33162       -1.86708        0.51285
C          1.87278       -2.63570       -0.48762
C          1.40609       -1.80350       -1.69434
O          1.27734       -0.59268       -1.74376
C          1.19164       -2.77719       -2.71189
C          1.40339       -4.06481       -2.30206
C          1.76545       -4.08568       -0.88334
C          1.84730       -5.22230       -0.14811
C          1.61677       -6.50859       -0.72598
N          1.42345       -7.56470       -1.17668
C          2.10081       -5.29168        1.24507
N          2.28612       -5.49375        2.37424
C          1.20492       -4.97324       -3.37037
C          0.83754       -4.30758       -4.53229
S          0.74902       -2.59776       -4.31151
H         10.67113       -1.31485      -11.14808
H         10.26928        1.21106      -10.54820
H         10.86093       -5.04507       -6.68753
H         12.53700       -3.26782       -4.55764
H         11.81005       -4.37118        1.59653
H          5.63024       -5.32455        6.77656
H          1.37396       -2.64344        3.12412
H          2.26846       -0.78197        0.40030
H          1.30671       -6.05071       -3.35429
H          0.61784       -4.73567       -5.50175
