91

C         -0.17802        1.98073       -0.47473
C          1.00548        2.17008       -1.18719
F          1.62224        3.35786       -1.12722
C          1.54758        1.14387       -1.94677
F          2.69397        1.32798       -2.61587
C          0.90838       -0.08602       -2.02325
C         -0.28835       -0.29396       -1.32499
C         -0.84416        0.74521       -0.51960
C         -2.03379        0.51737        0.21863
C         -2.67539       -0.71293        0.14005
C         -2.10614       -1.68895       -0.68596
C         -0.93787       -1.52077       -1.40991
C         -2.88645       -2.92212       -0.64838
O         -2.78199       -3.81090       -1.46537
C         -3.83130       -2.77664        0.50638
C         -3.88610       -1.31276        0.78720
C         -4.91006       -0.62609        1.36358
C         -6.08615       -1.26590        1.83643
N         -7.05256       -1.78293        2.23118
C         -4.90263        0.79325        1.48512
N         -4.89948        1.95074        1.58160
C         -4.35373       -3.80569        1.20231
C         -4.11179       -5.19504        0.95095
C         -2.99011       -5.85699        0.50267
C         -3.11782       -7.27812        0.45221
S         -1.69818       -8.14819       -0.14519
C         -1.31957       -9.26727        1.20249
C         -4.36114       -7.73210        0.88651
S         -5.34354       -6.34372        1.26883
C         -4.95614       -9.09884        1.04465
C         -5.82000       -9.49959        2.10256
C         -6.33240      -10.84986        2.24507
N         -7.18043      -11.14240        3.25994
C         -7.54893      -10.16238        4.10764
C         -7.06744       -8.89147        3.97915
N         -6.19008       -8.57112        3.01133
C         -5.99000      -11.89097        1.35429
C         -5.14960      -11.52237        0.26011
C         -4.66903      -10.10592        0.08331
N         -3.99548       -9.95226       -1.06845
S         -3.82259      -11.42360       -1.77468
N         -4.67356      -12.33319       -0.70431
C         -6.49174      -13.28852        1.48477
C         -6.78704      -14.04283        2.61033
C         -7.33640      -15.33435        2.30800
S         -7.71602      -16.51538        3.56330
C         -8.97872      -15.62795        4.50064
C         -7.51507      -15.54322        0.95095
S         -6.79932      -14.23426        0.09424
C         -8.04636      -16.66116        0.22385
C         -8.69439      -16.56223       -0.95095
C         -8.70561      -17.75568       -1.86146
O         -8.65142      -18.92881       -1.56256
C         -8.68340      -17.18734       -3.22904
C         -8.45067      -17.87555       -4.40760
C         -8.28146      -17.13169       -5.58423
C         -8.32078      -15.70346       -5.53705
C         -8.08578      -14.97119       -6.71059
C         -7.84456      -15.63232       -7.91053
C         -7.83595      -17.01881       -7.96168
C         -8.04710      -17.77126       -6.81018
F         -7.61759      -17.64837       -9.12413
F         -7.62133      -14.91505       -9.02017
C         -8.58731      -15.04216       -4.32332
C         -8.80544      -15.79043       -3.17591
C         -9.11000      -15.41825       -1.77442
C         -9.85084      -14.35733       -1.37230
C        -10.31859      -14.22848       -0.03102
N        -10.72938      -14.12319        1.04905
C        -10.28500      -13.34561       -2.27639
N        -10.62396      -12.52631       -3.02264
H         -0.56687        2.81079        0.10926
H          1.35625       -0.87108       -2.62727
H         -2.40696        1.31867        0.85035
H         -0.54985       -2.34248       -2.00783
H         -4.97550       -3.61102        2.07220
H         -2.07911       -5.35023        0.20977
H         -1.72133      -10.25995        0.98717
H         -1.71530       -8.90878        2.15453
H         -0.23255       -9.35039        1.28497
H         -8.24236      -10.43489        4.89461
H         -7.36798       -8.08592        4.63905
H         -6.62380      -13.68023        3.61843
H         -9.22596      -16.20315        5.39758
H         -9.88468      -15.51218        3.90078
H         -8.62109      -14.64459        4.81580
H         -7.79359      -17.65071        0.60638
H         -8.36952      -18.95936       -4.39577
H         -8.08648      -13.88390       -6.71023
H         -8.02339      -18.85499       -6.88672
H         -8.59257      -13.95523       -4.29830
