147

C         -0.27029      -17.65984        3.55901
O         -1.31765      -17.38719        4.10050
C         -0.10052      -18.72652        2.58016
C          1.21010      -19.22029        2.63851
C          1.61415      -20.13588        1.68568
C          0.69605      -20.51079        0.68048
C         -0.61853      -19.98729        0.65356
C         -1.03784      -19.09859        1.63538
Br        -1.85942      -20.36106       -0.73593
Br         1.34480      -21.68730       -0.66584
C          1.93434      -18.44704        3.69530
C          2.94754      -18.87585        4.47012
C          3.50821      -20.19309        4.32272
N          3.94329      -21.24670        4.18524
C          3.44976      -18.07741        5.54648
N          3.85235      -17.43490        6.43089
C          1.12964      -17.21375        3.85834
C          1.58660      -15.94580        3.75468
C          0.80886      -14.73816        3.36296
C         -0.53342      -14.56770        3.68350
C         -1.27679      -13.48595        3.20500
C         -0.70120      -12.47834        2.42330
C          0.66112      -12.61528        2.12842
C          1.40922      -13.71472        2.60973
C         -1.60526      -11.38014        1.90295
C         -2.91837      -11.85452        1.32125
C         -2.95326      -12.28793       -0.01676
C         -4.14632      -12.72219       -0.60108
C         -5.30405      -12.80866        0.16700
C         -5.27194      -12.44479        1.51317
C         -4.09113      -11.95270        2.08512
C         -1.28310      -10.03793        1.93019
C         -2.21197       -8.94251        1.39415
C         -2.21075       -7.67744        2.01884
C         -2.88866       -6.58204        1.46896
C         -3.64365       -6.73717        0.31305
C         -3.68589       -7.97449       -0.31017
C         -2.94110       -9.04033        0.20207
C          0.05975       -9.55048        2.45096
C          0.76378       -8.62535        1.67102
C          1.95164       -8.03238        2.11944
C          2.58815       -8.40998        3.31428
C          1.86394       -9.33880        4.09108
C          0.60737       -9.86000        3.69693
C          3.94009       -7.85561        3.69575
C          4.45199       -7.75013        5.02079
C          5.77213       -7.22968        5.32749
N          6.18827       -7.22934        6.61093
C          5.38656       -7.68253        7.60099
C          4.14265       -8.15887        7.31776
N          3.67307       -8.17811        6.04303
C          3.27801       -8.70652        8.32077
N          2.61232       -9.16391        9.15175
C          5.92869       -7.60582        8.92409
N          6.35743       -7.53142       10.00078
C          6.67831       -6.72665        4.35542
C          6.19021       -6.79292        3.01547
C          4.84911       -7.40070        2.68350
N          4.66538       -7.47979        1.35074
S          5.93341       -6.75953        0.59842
N          6.82019       -6.34157        1.91442
C          8.07680       -6.25513        4.65522
C          9.12620       -6.40399        3.72917
C         10.45500       -6.10185        4.04481
C         10.80741       -5.68319        5.32889
C          9.79195       -5.47610        6.25696
C          8.45320       -5.71795        5.90627
C         12.25546       -5.63991        5.70112
C         12.88748       -6.99771        5.80036
C         12.73783       -7.71868        6.99896
C         13.22764       -9.01877        7.11948
C         13.82212       -9.63593        6.02293
C         13.93310       -8.95006        4.81227
C         13.47592       -7.63210        4.70095
C         12.92485       -4.47318        5.98764
C         14.40316       -4.46282        6.32474
C         15.22058       -3.47122        5.75181
C         16.56297       -3.33017        6.12349
C         17.12733       -4.20137        7.04990
C         16.34259       -5.19354        7.62369
C         14.98901       -5.29654        7.28837
C         12.18589       -3.14637        6.05200
C         12.40788       -2.30881        7.15949
C         11.68454       -1.12000        7.34588
C         10.72473       -0.71091        6.41773
C         10.54377       -1.51088        5.27910
C         11.28468       -2.69127        5.08388
C          9.79026        0.41040        6.66182
C          9.93421        1.54093        7.37384
C          8.70650        2.33160        7.73384
O          7.60471        2.27678        7.22983
C          9.09257        3.15940        8.89428
C         10.43704        2.93081        9.23417
C         11.04237        2.11926        8.13837
C         12.31925        2.27577        7.71448
C         12.67049        2.08476        6.34382
N         12.94981        2.04357        5.21953
C         13.35309        2.78500        8.54908
N         14.18743        3.15941        9.26441
C         10.95534        3.55053       10.36241
C         10.15956        4.47505       11.06342
C          8.83852        4.74635       10.65395
C          8.28251        4.05659        9.57317
Br         7.75098        6.05866       11.49272
Br        10.98200        5.35816       12.53414
H          2.63090      -20.51738        1.65862
H         -2.02321      -18.64095        1.63301
H          2.66271      -15.77323        3.76891
H         -1.06677      -15.26705        4.31259
H         -2.33357      -13.47097        3.45833
H          1.16786      -11.86883        1.52044
H          2.46824      -13.75453        2.36128
H         -2.05649      -12.22251       -0.62916
H         -4.17117      -12.98444       -1.65560
H         -6.22937      -13.16226       -0.28210
H         -6.17086      -12.54304        2.11748
H         -4.08896      -11.67728        3.13683
H         -1.62288       -7.50619        2.91936
H         -2.80944       -5.60552        1.93857
H         -4.18054       -5.89569       -0.11383
H         -4.26711       -8.11792       -1.21715
H         -2.93051       -9.93548       -0.39832
H          0.37257       -8.30945        0.70450
H          2.35957       -7.25715        1.47528
H          2.24890       -9.69812        5.04125
H          0.08562      -10.52952        4.37805
H          8.96034       -6.80818        2.73432
H         11.21843       -6.25633        3.28583
H         10.02936       -5.16158        7.27037
H          7.71555       -5.51721        6.67793
H         12.24754       -7.25584        7.85310
H         13.13378       -9.54852        8.06369
H         14.18859      -10.65571        6.10877
H         14.36864       -9.44830        3.94989
H         13.55010       -7.12240        3.74451
H         14.80785       -2.76856        5.03015
H         17.16291       -2.53142        5.69540
H         18.17049       -4.09943        7.33609
H         16.77034       -5.87906        8.35091
H         14.40509       -6.03345        7.82395
H         13.13735       -2.58958        7.91818
H         11.86250       -0.56697        8.26162
H          9.79603       -1.24839        4.53191
H         11.10527       -3.26711        4.17952
H          8.79583        0.20929        6.25229
H         11.96857        3.36505       10.70499
H          7.26103        4.23073        9.24595
