85

C        -18.41708       -8.47000        4.69288
C        -18.60888       -9.57073        3.92431
C        -18.46655      -10.91410        4.40377
N        -18.37805      -11.98927        4.80742
C        -19.06247       -9.49484        2.58608
N        -19.43718       -9.44793        1.50126
C        -18.01880       -8.48601        6.12712
C        -18.15817       -7.21537        6.68664
C        -17.78844       -6.89137        7.99456
C        -17.43885       -7.97249        8.84139
C        -17.47767       -9.26560        8.30953
C        -17.61949       -9.52473        6.94080
S        -17.37048      -10.47245        9.52358
C        -16.86951       -9.33224       10.65208
C        -16.95832       -8.03735       10.20016
Br       -16.22089       -9.84682       12.32717
C        -18.76753       -6.31757        5.69979
O        -19.26160       -5.24448        5.97081
C        -18.70235       -7.05082        4.36861
C        -18.76601       -6.39330        3.18866
C        -19.02264       -4.96542        3.06899
C        -18.55152       -4.09856        2.16313
C        -18.76564       -2.67595        2.29029
C        -17.93728       -1.94256        1.53387
C        -17.03848       -2.74181        0.71750
S        -17.48906       -4.45384        0.83446
C        -15.95704       -2.29439        0.05092
C        -15.42518       -0.94260        0.06503
C        -14.18895       -0.84167       -0.45178
C        -13.64883       -2.10844       -0.90579
S        -14.90086       -3.32888       -0.89865
C        -12.37275       -2.32300       -1.28092
N        -11.67494       -3.48271       -1.63160
C        -11.84663       -4.75033       -1.13201
S        -12.25082       -4.96620        0.55638
C        -12.56733       -6.59756        0.32667
N        -13.17654       -7.34316        1.37862
O        -14.18294       -7.99931        1.07982
O        -12.63360       -7.31037        2.49054
C        -12.17382       -7.06354       -0.89909
C        -11.65547       -6.00636       -1.72741
C        -11.10491       -6.32820       -3.03662
C        -11.11171       -5.53812       -4.11261
C        -10.53198       -5.75669       -5.40417
O        -10.66021       -4.65276       -6.23363
C        -10.00835       -4.86139       -7.37706
C         -9.43976       -6.10306       -7.36513
N         -8.59946       -6.44670       -8.45412
O         -7.43603       -6.02548       -8.40152
O         -9.14834       -6.94239       -9.44219
C         -9.82213       -6.75899       -6.13560
N         -9.49686       -8.04760       -5.72144
C         -9.00155       -9.09566       -6.46894
O         -9.30200       -9.08255       -7.80277
C         -8.69130      -10.13703       -8.43227
C         -8.19325      -10.95403       -7.44341
C         -8.23502      -10.23993       -6.20866
C         -7.52859      -10.61237       -4.97570
O         -7.68187       -9.93085       -3.95687
C         -6.55015      -11.82491       -4.99043
F         -6.49909      -12.53776       -6.15233
F         -5.25913      -11.45096       -4.75264
F         -6.86052      -12.74277       -4.03000
C         -8.51683      -10.30915       -9.83068
C         -9.26977       -9.68107      -10.73590
H        -17.81207       -5.86222        8.34509
H        -17.46412      -10.53649        6.60246
H        -16.67630       -7.17664       10.79348
H        -18.54844       -6.90213        2.25663
H        -19.63508       -4.53906        3.85955
H        -19.47120       -2.25301        2.99376
H        -17.91811       -0.86256        1.56181
H        -15.95143       -0.10608        0.50386
H        -13.62488        0.08056       -0.47771
H        -11.70554       -1.46352       -1.33839
H        -10.95982       -3.32626       -2.33400
H        -12.25194       -8.10064       -1.19659
H        -10.66650       -7.31492       -3.11632
H        -11.59622       -4.56684       -4.02686
H         -9.99972       -4.04149       -8.08255
H         -9.74413       -8.30754       -4.76849
H         -7.72220      -11.90002       -7.67134
H         -7.69077      -10.93206      -10.16584
H        -10.09472       -9.03739      -10.45153
H         -9.04392       -9.77071      -11.79279
