73

C         12.23978      -10.78896        5.28400
C         12.28340       -9.79606        4.39369
C         13.13293       -8.63684        4.45829
C         12.86601       -7.72743        3.50845
C         11.77377       -8.10876        2.62287
S         11.25349       -9.75831        2.99749
C         11.14916       -7.33045        1.71796
C         11.38897       -5.92261        1.44907
C         10.37668       -5.32705        0.79481
C          9.28117       -6.22889        0.49804
S          9.76430       -7.87989        0.77127
C          8.04201       -5.84453        0.13063
C          6.95578       -6.75986       -0.03261
S          6.00975       -7.22871        1.33417
C          4.95410       -8.26277        0.42997
C          5.34537       -8.22832       -0.89675
C          6.44784       -7.37418       -1.15263
S          6.97550       -7.22872       -2.82105
C          5.70737       -8.25426       -3.51174
S          5.47753       -8.43936       -5.15550
S          4.66868       -9.03192       -2.30905
C          3.87600       -8.99925        1.08085
S          3.39451      -10.57799        0.53295
C          3.09696       -8.68580        2.16978
C          2.97823       -7.59740        3.11854
O          3.67032       -6.60359        3.20668
N          1.90471       -7.93620        3.92460
C          1.43602       -7.08652        5.00079
C          0.42767       -6.05331        4.52130
C          1.31842       -9.14451        3.59438
O          0.34327       -9.65541        4.11482
C          2.09391       -9.64852        2.47932
C          2.11685      -10.77372        1.68931
C          1.32964      -11.99808        1.75496
S          0.80659      -12.61224        3.29202
C          0.04593      -14.00093        2.62464
C          0.19157      -13.98719        1.25957
C          0.91767      -12.87618        0.76649
S          1.13266      -12.84137       -0.98092
C          0.29523      -14.36638       -1.33135
S          0.14044      -14.98995       -2.87347
S         -0.38379      -15.16508        0.09346
C         -0.60695      -14.94086        3.47257
C          0.01960      -15.99783        4.01426
C         -0.63692      -16.98902        4.83406
C          0.15675      -18.00847        5.18912
C          1.51333      -17.90944        4.67376
S          1.71244      -16.38494        3.80904
C          2.47775      -18.84441        4.78276
C          2.34130      -20.14191        5.42321
C          3.41393      -20.93413        5.28683
C          4.48430      -20.31830        4.54684
S          4.09768      -18.68391        4.09362
C          5.63742      -20.90654        4.21990
H         12.87605      -10.80040        6.16085
H         11.54371      -11.61532        5.16720
H         13.89434       -8.51979        5.21612
H         13.39763       -6.78986        3.42472
H         12.26717       -5.39349        1.79529
H         10.34966       -4.27304        0.55676
H          7.81618       -4.78824        0.02145
H          2.29735       -6.57190        5.44084
H          0.97841       -7.71195        5.77476
H          0.85366       -5.41292        3.74181
H          0.11687       -5.41370        5.35404
H         -0.46524       -6.53414        4.10897
H         -1.67130      -14.79687        3.63762
H         -1.67884      -16.91497        5.11752
H         -0.18801      -18.83674        5.79128
H          1.44755      -20.45665        5.94206
H          3.47828      -21.94001        5.67740
H          5.85169      -21.93200        4.49909
H          6.39807      -20.37925        3.65197
