107

C         -0.81956        0.96481        6.54181
C         -0.26193       -0.01760        7.54490
O         -0.74226       -1.09364        7.84421
C          1.07463        0.55099        7.93404
C          1.25217        1.77206        7.25087
C         -0.06761        2.19860        6.72990
C         -0.57252        3.44397        6.82105
C         -1.98100        3.70043        6.68624
N         -3.12273        3.87017        6.60369
C          0.22379        4.56004        7.19171
N          0.89686        5.45340        7.50299
C          2.50375        2.34778        7.14141
C          3.55904        1.75408        7.83265
C          3.35746        0.63961        8.67499
C          2.08697        0.00631        8.73713
C          1.91619       -1.07970        9.62194
C          2.96263       -1.49913       10.44892
C          4.20820       -0.88386       10.36785
C          4.40926        0.16361        9.47073
C         -1.58489        0.55833        5.51351
C         -1.71878        1.37727        4.27279
N         -1.58600        2.67845        4.22261
C         -1.74665        2.98746        2.91893
C         -1.87231        1.78648        2.14493
C         -1.87155        2.16851        0.70937
O         -1.62327        1.47849       -0.25685
C         -1.96504        3.64295        0.76686
C         -1.82829        4.05801        2.13615
N         -1.80564        5.41281        2.20972
C         -1.96918        5.77083        0.96509
C         -2.08540        4.68958       -0.03760
C         -1.93560        0.71972        2.93819
C         -2.10978       -0.66921        2.65240
C         -1.72515       -1.24490        1.50320
C         -1.80130       -2.64512        1.25439
S         -2.10353       -3.15364       -0.36842
C         -2.10649       -4.82732       -0.01038
C         -1.72021       -5.00374        1.31658
C         -1.61750       -3.75455        2.05489
C         -1.33979       -3.68301        3.43139
C         -1.28236       -4.95000        4.05478
N         -1.26821       -4.92629        5.50632
O         -2.18610       -4.28757        6.04981
O         -0.31892       -5.46375        6.07983
C         -1.31236       -6.17084        3.33340
N         -1.17615       -7.44090        4.01779
O         -2.05027       -7.72931        4.84153
O         -0.22905       -8.15814        3.67228
C         -1.49976       -6.25263        1.92866
C         -2.47048       -5.81826       -1.02799
N         -2.35018       -7.09351       -0.71676
C         -2.74381       -7.76475       -1.81910
C         -3.13228       -6.84736       -2.85087
C         -3.49551       -7.64518       -4.05901
O         -3.83945       -7.25669       -5.15197
C         -3.29332       -9.04498       -3.60411
C         -2.84220       -9.02184       -2.23600
N         -2.62455      -10.28260       -1.79074
C         -2.93202      -11.01452       -2.82596
C         -3.37093      -10.29523       -4.04502
C         -3.01595       -5.58463       -2.43910
C         -3.25202       -4.38191       -3.20309
C         -4.43141       -4.05809       -3.76915
C         -4.69314       -2.92757       -4.64737
C         -4.49686       -1.61600       -4.44146
C         -4.77501       -0.57205       -5.51948
O         -5.44026       -0.72759       -6.52372
C         -4.03233        0.65895       -5.10444
C         -3.36032        0.36492       -3.91187
C         -3.95748       -0.85282       -3.32457
C         -4.38465       -0.90461       -2.04198
C         -5.20229       -1.95159       -1.52734
N         -5.85791       -2.76437       -1.02132
C         -4.29622        0.21548       -1.16782
N         -4.37321        1.13438       -0.45714
C         -2.35242        1.18326       -3.44298
C         -2.13810        2.39974       -4.08512
C         -2.97330        2.81991       -5.13644
C         -3.94278        1.93516       -5.68612
C         -4.79103        2.42465       -6.70226
C         -4.72597        3.76487       -7.10326
C         -3.77060        4.61755       -6.55741
C         -2.87629        4.13660       -5.60536
H          2.68220        3.22714        6.53131
H          4.55008        2.19897        7.74581
H          0.95045       -1.57456        9.71561
H          2.80156       -2.30093       11.16602
H          5.02172       -1.20892       11.01253
H          5.39167        0.63051        9.42530
H         -1.98104       -0.45215        5.50707
H         -2.00391        6.81650        0.62447
H         -2.18955        4.76104       -1.10094
H         -2.57881       -1.24924        3.44095
H         -1.31829       -0.63801        0.69986
H         -1.21731       -2.77646        4.01031
H         -1.49155       -7.20888        1.41914
H         -2.88194      -12.11426       -2.84283
H         -3.64501      -10.70401       -4.99515
H         -2.37918       -3.75847       -3.38035
H         -5.29292       -4.71970       -3.64003
H         -5.13661       -3.22743       -5.60240
H         -1.74962        0.91407       -2.58252
H         -1.35651        3.05645       -3.70585
H         -5.55887        1.78841       -7.13954
H         -5.43751        4.15146       -7.82961
H         -3.73071        5.66228       -6.85757
H         -2.13618        4.81916       -5.19124
