104

C         10.28150       -2.99478        7.79009
C         10.24769       -4.06523        8.68181
F         11.04847       -4.05457        9.75558
C          9.39642       -5.14173        8.48131
C          8.56715       -5.15948        7.36088
C          8.57756       -4.09117        6.44668
C          9.44129       -2.97688        6.66451
C          9.43868       -1.88290        5.76109
C          8.58952       -1.89480        4.66035
C          7.78231       -3.02697        4.46002
C          7.75087       -4.11480        5.31993
C          7.04132       -2.91898        3.19263
O          6.24208       -3.71897        2.75281
C          7.54511       -1.67029        2.53822
C          8.30040       -0.92392        3.55871
C          8.44138        0.42422        3.60876
C          9.10013        1.10147        4.67194
N          9.62520        1.66939        5.53722
C          7.80313        1.27901        2.65811
N          7.23222        1.95364        1.90432
C          7.41204       -1.59188        1.20617
C          8.18121       -0.68688        0.32363
N          9.40647       -0.27725        0.55845
C          9.72801        0.39850       -0.58026
C          8.63509        0.34526       -1.51838
C          9.01774        1.06607       -2.75647
O          8.40632        1.19362       -3.79291
C         10.37971        1.54317       -2.42893
C         10.73224        1.09603       -1.10449
N         11.98493        1.52452       -0.79560
C         12.33913        2.18120       -1.86402
C         11.36622        2.24110       -2.97543
C          7.59868       -0.30186       -1.00214
C          6.27982       -0.52473       -1.50402
C          6.03585       -1.04562       -2.71656
C          4.71455       -1.29012       -3.15556
N          4.51048       -2.37581       -3.97575
C          3.16992       -2.56372       -4.18110
C          2.50885       -1.49360       -3.62002
C          3.48190       -0.69460       -2.96142
C          2.62236       -3.71187       -4.81241
C          2.09376       -4.80749       -5.28170
C          1.47753       -6.08474       -5.82878
C          2.05175       -7.29106       -5.78210
C          1.27502       -8.39956       -6.38659
N          0.40913       -8.24403       -7.36115
C         -0.06179       -9.49667       -7.57235
C          0.56765      -10.42787       -6.67101
C          0.01268      -11.78653       -6.93630
O          0.24182      -12.83642       -6.37389
C         -0.94246      -11.53212       -8.04198
C         -0.92524      -10.12829       -8.36114
N         -1.79394       -9.87088       -9.37262
C         -2.29041      -11.04838       -9.63524
C         -1.80207      -12.18026       -8.81753
C          1.44247       -9.80472       -5.88322
C          2.32906      -10.29245       -4.86825
C          2.07997      -11.39058       -4.14016
C          2.95631      -11.91030       -3.11628
C          3.03211      -13.20167       -2.76346
C          3.61792      -13.55563       -1.43464
O          4.32725      -12.87414       -0.72547
C          3.08874      -14.89608       -1.12316
C          3.31736      -15.60591        0.04309
C          2.74797      -16.87783        0.15968
C          1.91626      -17.38146       -0.88474
C          1.36527      -18.66292       -0.75766
C          1.64297      -19.43334        0.36590
C          2.45226      -18.95246        1.38615
C          2.99859      -17.67291        1.28805
F          1.12950      -20.66659        0.45918
C          1.67981      -16.61280       -2.04175
C          2.30415      -15.38235       -2.18332
C          2.43377      -14.42567       -3.31648
C          2.37774      -14.77027       -4.62950
C          3.06811      -14.00853       -5.62117
N          3.70932      -13.44514       -6.40786
C          1.81408      -15.99210       -5.09494
N          1.34841      -16.99491       -5.45984
H         10.96962       -2.17890        7.99445
H          9.38216       -5.95937        9.19640
H          7.90804       -6.01313        7.21078
H         10.11301       -1.05056        5.94566
H          7.10484       -4.96172        5.10235
H          6.80619       -2.32822        0.68069
H         13.31051        2.68835       -1.98427
H         11.45641        2.71489       -3.93178
H          5.46271       -0.25759       -0.83588
H          6.86051       -1.33267       -3.36588
H          5.22964       -3.00572       -4.30173
H          1.43905       -1.32647       -3.63327
H          3.29179        0.20386       -2.38811
H          0.49916       -5.93819       -6.28390
H          3.01719       -7.47089       -5.33374
H         -3.03836      -11.24053      -10.41933
H         -2.08307      -13.21290       -8.86777
H          3.26125       -9.75153       -4.72653
H          1.14932      -11.93659       -4.28179
H          3.49447      -11.16589       -2.52704
H          3.94457      -15.18169        0.82234
H          0.73505      -19.08809       -1.53443
H          2.65891      -19.57921        2.24769
H          3.63501      -17.30897        2.09247
H          1.03340      -17.01803       -2.81454
