94

C          4.90221       -4.54852       -5.34210
N          3.57484       -4.40010       -5.57661
N          3.01349       -3.22273       -6.18399
C          3.75356       -2.14821       -6.58147
C          5.13814       -2.26815       -6.35657
C          5.69787       -3.46791       -5.73871
N          7.02497       -3.31987       -5.64153
O          7.30454       -2.07499       -6.17302
N          6.16133       -1.43627       -6.60534
C          3.09277       -0.97825       -7.16497
N          3.74411        0.08861       -7.58423
C          2.76516        0.93433       -7.99779
C          1.47904        0.32163       -7.82262
C          0.41945        1.26481       -8.25992
O         -0.78345        1.13057       -8.26515
C          1.21117        2.44585       -8.66715
C          2.61188        2.16464       -8.47891
N          3.34798        3.25218       -8.82586
C          2.43921        4.11329       -9.19367
C          1.02840        3.67526       -9.12723
C          1.59810       -0.89108       -7.29486
C          0.55696       -1.79850       -6.93386
C         -0.42864       -1.43042       -6.10153
C         -1.59493       -2.23613       -5.79076
C         -2.81426       -1.66004       -5.96023
C         -4.01466       -2.36357       -5.55207
C         -5.33094       -2.01256       -5.60329
C         -5.97548       -0.82610       -6.32340
C         -7.35731       -1.18444       -6.96015
N         -8.01017       -0.12152       -7.73744
C         -6.09365        0.44127       -5.44353
N         -4.80775        1.02273       -5.04835
C         -6.01959       -3.10773       -4.89942
C         -7.28442       -3.25764       -4.47031
C         -7.79137       -4.53160       -3.81378
C         -6.71264       -5.58020       -3.58971
C         -5.42841       -5.40871       -3.94896
C         -5.06381       -4.16674       -4.57663
C         -3.86173       -3.70635       -4.94458
C         -2.55733       -4.31552       -4.84462
C         -1.48773       -3.60633       -5.25069
C         -8.89191       -5.11493       -4.66315
C        -10.18183       -5.21812       -4.30338
C        -11.12086       -5.87625       -5.24027
N        -10.75148       -6.76602       -6.13162
C        -11.91620       -7.12735       -6.71394
C        -13.01975       -6.41219       -6.12748
C        -14.27642       -6.87382       -6.77313
O        -15.42560       -6.52939       -6.56197
C        -13.79045       -7.87677       -7.74446
C        -12.36002       -7.97063       -7.64494
N        -11.89132       -8.90442       -8.51153
C        -12.97958       -9.33416       -9.08698
C        -14.25691       -8.72483       -8.65070
C        -12.59239       -5.56984       -5.18802
C        -13.30593       -4.68439       -4.31695
C        -14.46582       -4.08232       -4.63847
C        -15.20377       -3.20350       -3.73962
N        -14.75728       -2.91261       -2.48674
N        -15.45339       -2.03835       -1.58072
C        -16.62145       -1.42206       -1.89367
C        -17.11427       -1.69888       -3.17355
C        -16.41783       -2.58296       -4.09764
N        -17.13402       -2.63722       -5.23220
O        -18.23818       -1.82994       -5.02825
N        -18.22529       -1.24911       -3.77243
H          5.25470       -5.45703       -4.87935
H          2.66185        5.13361       -9.53953
H          0.13777        4.22021       -9.36811
H          0.54929       -2.77357       -7.41422
H         -0.41706       -0.44670       -5.63183
H         -2.91353       -0.64622       -6.33400
H         -5.32365       -0.57339       -7.17387
H         -8.08499       -1.44374       -6.19452
H         -7.24198       -2.05908       -7.61087
H         -8.37804        0.58377       -7.09763
H         -8.84141       -0.51841       -8.18063
H         -6.67900        0.22051       -4.54533
H         -6.62715        1.22810       -5.98815
H         -4.34551        1.39635       -5.87914
H         -4.97422        1.82165       -4.43910
H         -8.01631       -2.46911       -4.55660
H         -8.18468       -4.25545       -2.82684
H         -7.01045       -6.50971       -3.11259
H         -4.68157       -6.17347       -3.77704
H         -2.45267       -5.31675       -4.44730
H         -0.49315       -4.03754       -5.17172
H         -8.57911       -5.47977       -5.64415
H        -10.54318       -4.87087       -3.34486
H        -13.00146      -10.11679       -9.85827
H        -15.25268       -8.94353       -8.97644
H        -12.86526       -4.50721       -3.33723
H        -14.92688       -4.23642       -5.61122
H        -17.08227       -0.77453       -1.16441
