128

C        -16.02977        2.00964       16.73150
C        -17.10243        1.12585       16.85291
C        -17.99746        0.93894       15.78592
C        -17.82237        1.61359       14.57142
C        -16.73535        2.46356       14.44586
C        -15.87064        2.66775       15.52514
N        -14.88705        3.59080       15.16749
C        -13.95147        4.16574       16.09755
C        -15.06657        4.03898       13.85876
O        -14.44918        4.94227       13.31544
C        -16.22504        3.22173       13.23478
C        -15.78609        2.33004       12.04903
C        -15.06494        1.06357       12.55987
O        -15.58636        0.09348       13.08823
N        -13.71100        1.22266       12.28478
C        -12.70360        0.28342       12.68767
C        -13.51376        2.25350       11.36329
C        -12.35212        2.56771       10.67639
C        -12.40699        3.54415        9.67195
C        -13.65098        4.16258        9.39749
C        -14.81470        3.85723       10.12976
C        -14.72889        2.90118       11.12522
C        -11.24334        3.83285        8.80233
C         -9.95621        3.61203        9.11770
N         -8.78681        3.70940        8.37704
C         -8.54107        3.41642        7.05728
S         -9.78917        3.04537        5.91602
C         -8.69644        2.85560        4.65506
N         -9.17758        2.60049        3.33417
O         -8.63318        3.23736        2.42279
O        -10.06115        1.74542        3.19944
C         -7.38994        3.01665        5.03534
C         -7.28567        3.32105        6.43602
C         -6.03104        3.58551        7.10472
C         -4.80693        3.23408        6.66971
C         -3.49619        3.63789        7.17947
C         -3.16278        4.69855        7.96120
C         -3.96818        5.72182        8.61155
C         -3.36271        6.72740        9.27315
C         -1.91565        6.80771        9.39963
C         -1.10547        5.92157        8.79230
C         -1.68690        4.89379        7.94682
C         -1.10912        4.08325        7.02886
C         -2.18286        3.11796        6.69839
C         -1.99460        1.90266        6.16129
N          0.13332        4.07705        6.39956
C          0.87578        5.14369        5.93939
S          0.47534        6.80164        6.26702
C          1.98561        7.36081        5.79610
N          2.36221        8.72560        6.03732
O          3.39534        9.11522        5.46631
O          1.66055        9.40838        6.79469
C          2.68629        6.40417        5.10673
C          1.96910        5.15306        5.06363
C          2.38537        4.13606        4.12745
C          1.54000        3.39803        3.38610
C          1.89362        2.76735        2.09063
C          2.51082        3.54215        1.08979
C          2.57415        3.10338       -0.24695
C          1.95753        1.91636       -0.63255
C          1.33605        1.16044        0.34667
C          1.38920        1.53201        1.69427
N          0.93637        0.44998        2.46366
C          1.22067        0.29850        3.86471
C          0.57575       -0.62769        1.64541
O          0.36454       -1.77804        1.99963
C          0.52848       -0.11161        0.19561
C         -0.93291        0.06717       -0.33592
C         -1.29285        1.55202       -0.59291
O         -0.87118        2.24550       -1.50683
N         -2.18570        1.94299        0.40725
C         -2.68181        3.28298        0.56579
C         -2.69296        0.82902        1.07868
C         -3.70142        0.77346        2.02636
C         -4.08845       -0.48252        2.51812
C         -3.49305       -1.64458        1.98063
C         -2.47126       -1.56875        1.02535
C         -2.05076       -0.31732        0.61277
C         -5.13595       -0.54168        3.55043
C         -5.24195       -1.50416        4.47654
H        -15.33795        2.14393       17.55475
H        -17.24092        0.56806       17.77641
H        -18.82141        0.23754       15.89923
H        -18.49794        1.42870       13.74314
H        -13.41857        3.37438       16.63194
H        -14.50024        4.79131       16.80871
H        -13.22507        4.79138       15.57148
H        -16.98469        3.94697       12.91767
H        -16.65077        1.99850       11.46089
H        -13.10817       -0.40294       13.43791
H        -11.86268        0.82647       13.12829
H        -12.37352       -0.29333       11.82056
H        -11.44043        2.01960       10.87874
H        -13.72542        4.88888        8.58878
H        -15.75349        4.34704        9.89073
H        -11.49551        4.23747        7.82726
H         -9.70819        3.30404       10.13212
H         -7.97237        3.74670        8.98658
H         -6.55975        2.94414        4.34281
H         -6.11209        4.16464        8.01240
H         -4.73651        2.60623        5.78305
H         -5.04236        5.73790        8.53440
H         -3.94851        7.51902        9.73074
H         -1.50463        7.61457        9.99854
H         -0.03062        5.96754        8.91926
H         -1.00970        1.52996        5.91639
H         -2.81125        1.20366        6.01189
H          0.38566        3.16343        6.03850
H          3.62178        6.60542        4.59685
H          3.43314        4.16476        3.82741
H          0.47087        3.39801        3.58819
H          2.90850        4.52937        1.31721
H          3.05021        3.72985       -0.99843
H          1.93437        1.62073       -1.67906
H          0.44424        0.80850        4.43399
H          2.20167        0.71996        4.10396
H          1.23020       -0.75918        4.14357
H          1.08617       -0.81900       -0.42763
H         -1.07112       -0.46848       -1.28353
H         -2.02584        3.98873        0.04769
H         -2.70294        3.54172        1.62873
H         -3.68643        3.35279        0.14031
H         -4.17871        1.67979        2.38097
H         -3.81575       -2.63063        2.30911
H         -2.00587       -2.47569        0.64993
H         -5.84891        0.27862        3.56279
H         -4.55372       -2.34130        4.53487
H         -6.03446       -1.47124        5.21800
