114

C          0.24078        2.72044       -1.09135
S          0.13410        3.83220        0.33205
C          0.36111        2.51934        1.58373
C          0.86747        1.28071        0.82507
C          0.11243        1.31572       -0.51673
C          0.50729       -0.01831        1.58765
O         -0.05647       -0.04611        2.68003
N          0.87277       -1.19458        0.98460
N          2.33634        1.34355        0.55025
C          3.30483        1.43631        1.53512
C          3.34798        0.89459        2.75973
C          4.41563        1.12270        3.74419
C          5.44456        2.03826        3.51016
C          6.42538        2.22014        4.46508
C          6.41283        1.48242        5.66188
C          5.39971        0.57632        5.92074
C          4.39948        0.40596        4.95762
C          7.58416        1.81828        6.42981
C          8.34397        2.77380        5.71896
C          7.66217        3.11565        4.37862
C          7.27497        4.62714        4.37892
C          6.55793        5.18689        3.14876
C          8.56065        2.72265        3.17248
C          8.90666        1.23291        3.05228
C          9.53634        3.25796        6.23819
C          9.98979        2.75714        7.46801
C          9.21274        1.81393        8.17353
C          8.00885        1.33576        7.65457
C         11.25050        3.28067        8.00660
C         12.08909        2.59124        8.79574
C         13.32084        3.14965        9.31198
C         13.42811        4.22068       10.11164
C         14.66779        4.73206       10.63913
C         14.49677        5.65635       11.59495
C         13.09992        5.92031       11.90625
S         12.06910        5.13003       10.72518
C         12.62073        6.58590       12.97326
C         13.41879        7.19696       14.01938
C         12.69503        7.65718       15.04911
C         11.26897        7.45915       14.88610
S         10.89691        6.74909       13.35266
C         10.36001        7.76055       15.82305
N          8.98345        7.63089       15.82446
C          8.11232        7.97742       16.83433
C          8.52054        8.54725       18.02542
S          7.22519        8.94065       19.06105
C          6.09104        8.33288       17.94027
C          6.67620        7.83130       16.79287
N          5.96818        7.24449       15.78201
C          4.63623        7.43180       15.45257
C          3.94326        6.75760       14.52304
C          2.51973        7.07671       14.11544
S          2.33441        6.80668       12.32193
C          0.83405        5.78771       12.46453
C          0.23486        6.07502       13.84491
C          1.46454        6.18899       14.77805
C         -0.63804        4.91077       14.40425
O         -1.17801        4.94006       15.50796
N         -0.75849        3.75554       13.67231
N         -0.50832        7.35741       13.85704
C         -1.76360        7.63120       13.37942
C         -2.34281        8.83579       13.39686
H          1.21014        2.87128       -1.57684
H         -0.53989        2.93652       -1.82522
H         -0.61386        2.33968        2.04831
H          1.04605        2.86702        2.36219
H         -0.94786        1.08063       -0.35487
H          0.49414        0.57695       -1.23118
H          1.65647       -1.17282        0.34716
H          0.78168       -2.01891        1.56899
H          2.54040        2.03926       -0.16947
H          4.11073        2.07684        1.18378
H          2.55875        0.23308        3.09716
H          5.50942        2.59832        2.58803
H          5.38359       -0.00306        6.83768
H          3.60182       -0.30738        5.16299
H          8.18124        5.23144        4.51620
H          6.63780        4.83833        5.24898
H          7.18622        5.14855        2.25460
H          6.30025        6.23831        3.32197
H          5.61447        4.68042        2.93916
H          9.50081        3.28572        3.21971
H          8.07420        3.00982        2.23235
H          9.29324        0.81542        3.98616
H          9.67436        1.08964        2.28444
H          8.03542        0.64342        2.74647
H         10.11071        4.00084        5.69379
H          9.53510        1.44885        9.14576
H          7.42872        0.60310        8.20455
H         11.49091        4.30265        7.72089
H         11.89262        1.55740        9.06797
H         14.21332        2.58266        9.05357
H         15.63349        4.37892       10.30206
H         15.32113        6.12572       12.11254
H         14.49635        7.25938       13.98503
H         13.12240        8.12514       15.92379
H         10.74856        8.16147       16.75316
H          8.61219        7.31856       14.92869
H          9.52161        8.77948       18.35576
H          5.04581        8.34740       18.20471
H          6.45060        6.59350       15.16720
H          4.15821        8.23764       16.00629
H          4.43285        5.95043       13.99346
H          2.29680        8.13428       14.29976
H          1.16594        4.74996       12.36594
H          0.13834        5.99933       11.64670
H          1.87268        5.18878       14.99019
H          1.18149        6.61303       15.75126
H         -0.64811        3.71233       12.66889
H         -1.34806        3.04024       14.08591
H          0.03402        8.18742       14.08364
H         -2.30887        6.77842       12.97718
H         -1.84323        9.70340       13.81439
H         -3.34661        8.98042       13.01369
