102

C         -8.04986      -11.57610        6.67802
S         -7.14478      -13.03903        6.65676
C         -5.80428      -12.33378        5.80290
C         -6.12292      -11.02871        5.54139
C         -7.36239      -10.60577        6.02360
S         -7.68122       -8.87795        5.62749
C         -6.07284       -8.98026        4.84091
N         -5.36397      -10.11575        4.85822
C         -4.65982      -13.12676        5.50984
C         -3.44769      -12.56478        5.38753
C         -2.27149      -13.30945        5.07947
S         -0.98540      -12.47175        4.30550
C          0.02911      -13.86071        4.22927
C         -0.59429      -14.93750        4.84160
C         -1.91835      -14.63048        5.29129
O         -2.77145      -15.47523        5.93519
C         -2.50913      -16.85607        5.67849
C         -1.13057      -17.27213        6.16140
S          0.13190      -16.53359        5.09967
C          1.30204      -13.68124        3.60829
C          1.92873      -14.68255        2.97349
C          3.18891      -14.53183        2.33487
S          3.57291      -15.66057        1.10643
C          5.08334      -14.92583        0.73019
C          5.31409      -13.87133        1.60083
C          4.24449      -13.66124        2.52928
O          4.18153      -12.71164        3.50202
C          5.46217      -12.23392        3.91522
C          6.21659      -11.57594        2.77063
S          6.75408      -12.84189        1.58013
C          5.89146      -15.41885       -0.34362
C          5.36652      -16.09818       -1.37726
C          6.08788      -16.45177       -2.57266
C          6.23796      -17.71474       -3.04714
O          6.73384      -17.96321       -4.33429
C          7.00106      -16.86539       -5.07979
C          6.87995      -15.56280       -4.56326
C          7.19160      -14.58749       -5.47511
S          7.59736      -15.29048       -6.99468
C          7.37144      -16.88981       -6.39624
O          6.47226      -15.32113       -3.30270
C          5.84774      -18.93220       -2.36801
C          6.32414      -19.32509       -1.17449
C          5.95286      -20.57158       -0.50681
C          6.84890      -21.12580        0.35443
C          6.51325      -22.33686        1.08306
C          7.21952      -23.07327        1.98147
C          8.63198      -22.91904        2.51621
C          9.67154      -23.01925        1.36342
N         11.07215      -22.98949        1.79398
C          8.82315      -21.62315        3.34299
N          7.94212      -21.52917        4.50643
C          6.31102      -24.15721        2.36932
C          6.44136      -25.14708        3.26503
C          5.36191      -26.20644        3.47395
C          4.10579      -25.98370        2.63786
C          3.96885      -24.97301        1.76143
C          5.06208      -24.04866        1.62042
C          5.18294      -22.94811        0.86599
C          4.24725      -22.32960       -0.03634
C          4.61912      -21.19961       -0.66623
C          5.88522      -27.60842        3.22308
C          6.87140      -27.94692        2.38025
H         -9.02066      -11.49540        7.14655
H         -5.69659       -8.08997        4.35325
H         -4.79876      -14.19713        5.39326
H         -3.33346      -11.48842        5.50346
H         -2.67946      -17.08384        4.61762
H         -3.26085      -17.42030        6.24194
H         -0.95409      -16.93297        7.18660
H         -1.01929      -18.35947        6.12390
H          1.73150      -12.68348        3.61482
H          1.46048      -15.65800        2.89134
H          6.03117      -13.04110        4.39547
H          5.27233      -11.48350        4.69101
H          5.57652      -10.85668        2.24870
H          7.10078      -11.05230        3.14479
H          6.94930      -15.17247       -0.34201
H          4.30736      -16.33162       -1.43677
H          7.17225      -13.51579       -5.34360
H          7.50662      -17.74777       -7.04063
H          5.17142      -19.56540       -2.93406
H          7.05106      -18.70131       -0.65818
H          7.82469      -20.68345        0.51033
H          8.85040      -23.75745        3.19137
H          9.52746      -22.20923        0.64451
H          9.51576      -23.96154        0.82053
H         11.28132      -22.12151        2.28348
H         11.67515      -22.98935        0.97051
H          8.67932      -20.73988        2.71145
H          9.84778      -21.57269        3.72442
H          6.96892      -21.57329        4.20095
H          8.06261      -20.61727        4.94875
H          7.33411      -25.23917        3.87431
H          5.06404      -26.14649        4.52920
H          3.28951      -26.68968        2.76557
H          3.06739      -24.84891        1.17276
H          3.26250      -22.75704       -0.17808
H          3.90654      -20.70719       -1.32055
H          5.38895      -28.39946        3.78131
H          7.38391      -27.20689        1.77201
H          7.17429      -28.98244        2.26141
