72

C          7.00327       -6.30677       -7.16318
S          7.20837       -6.66987       -5.49503
C          5.77227       -7.65415       -5.40672
C          5.20334       -7.65160       -6.65422
C          5.88093       -6.91230       -7.62560
S          5.05482       -6.98366       -9.22605
C          3.88986       -8.01841       -8.34324
N          4.05754       -8.29585       -7.04526
C          5.42356       -8.27388       -4.16705
C          4.35009       -9.07208       -4.06466
C          3.97008       -9.74299       -2.86553
S          3.02009      -11.19251       -3.04404
C          2.89920      -11.44039       -1.36259
C          3.53322      -10.44611       -0.66897
C          4.17397       -9.48075       -1.51917
N          4.87800       -8.41446       -1.04527
C          4.88012       -8.34923        0.32415
C          4.22970       -9.34796        1.16550
N          4.43475       -9.31121        2.56981
C          3.41134      -10.00042        3.33280
N          3.54374      -10.41812        0.68252
N          5.57360       -7.25360        0.95977
C          6.49203       -6.59146        0.02379
C          4.89712       -6.42758        1.88294
C          5.50872       -5.81182        2.94033
O          4.86987       -4.84679        3.72954
C          3.62231       -4.50598        3.34135
C          2.95917       -5.17052        2.29215
C          1.69593       -4.68797        2.06489
S          1.34964       -3.36568        3.11428
C          2.88925       -3.48044        3.87818
O          3.54229       -6.16281        1.58493
C          6.89313       -6.07166        3.30483
C          7.62051       -5.42474        4.23442
C          9.00577       -5.71595        4.39870
S          9.72975       -5.74996        5.97161
C         11.31104       -6.15605        5.38295
C         11.28793       -6.20549        4.00985
C         10.00593       -5.96533        3.51076
C         10.05391       -5.99251        2.08920
C         11.32259       -6.28429        1.57590
C         11.70167       -6.42007        0.13583
S         12.58432       -6.49191        2.77046
C         12.42961       -6.34993        6.24332
C         12.68195       -5.73951        7.53307
C         13.83535       -6.15427        8.06281
C         14.37625       -7.09986        7.08242
O         15.42349       -7.70191        7.18439
C         13.43502       -7.19228        5.96025
H          7.69142       -5.68475       -7.71860
H          3.04659       -8.41121       -8.89702
H          6.06482       -8.09965       -3.30727
H          3.72738       -9.26291       -4.93476
H          2.36479      -12.28916       -0.96218
H          5.36769       -9.68208        2.73708
H          3.38001      -11.07501        3.12487
H          2.42742       -9.55882        3.13742
H          3.61946       -9.87430        4.39937
H          5.96184       -6.09558       -0.79717
H          7.22468       -7.30169       -0.37566
H          7.07002       -5.81112        0.53164
H          0.96910       -5.01725        1.33631
H          3.16875       -2.78990        4.66115
H          7.36693       -6.88064        2.75258
H          7.17828       -4.64912        4.85338
H          9.20708       -5.80621        1.44302
H         10.83756       -6.24707       -0.51402
H         12.07861       -7.42759       -0.06921
H         12.47528       -5.69324       -0.13169
H         12.01354       -5.02924        7.99934
H         14.30790       -5.89396        8.99158
H         13.60136       -7.83676        5.11678
