108

C          5.05507       -4.92173        8.53361
S          3.40652       -4.52353        8.81832
C          3.33321       -3.53528        7.41546
C          4.53677       -3.50504        6.76084
C          5.53144       -4.31172        7.39925
N          6.80977       -4.44529        6.96824
C          7.07050       -3.67958        5.85694
C          6.05046       -2.84462        5.22338
N          6.27605       -1.89766        4.21213
C          6.72661       -2.38797        2.92525
N          4.75438       -2.76131        5.65053
N          8.43762       -3.64792        5.39012
C          9.34968       -3.72522        6.53748
C          8.79062       -4.34726        4.23665
C          8.43436       -5.57655        3.83476
C          8.48433       -5.91157        2.45501
N          9.63414       -6.20479        1.71859
C         10.97405       -6.25657        2.28832
C         11.34810       -7.61273        2.87432
C          9.27108       -6.39597        0.38101
C          7.89064       -6.24985        0.32358
C          7.40431       -5.97892        1.60357
C         10.05360       -6.62867       -0.81434
N         11.44450       -6.62731       -0.99345
C         12.14389       -7.79322       -0.44714
C         12.65700       -8.77402       -1.47238
C         11.65520       -6.21642       -2.31218
C         10.58111       -6.76934       -3.00659
C          9.57444       -7.04641       -2.05361
C         12.62085       -5.27325       -2.78317
C         13.98078       -5.23196       -2.66318
O         14.74971       -4.35816       -3.47276
C         14.09426       -3.73296       -4.47527
C         12.69888       -3.75355       -4.56762
C         12.20449       -3.09871       -5.66490
S         13.49223       -2.44981       -6.60372
C         14.68343       -3.05885       -5.51355
O         11.94520       -4.40068       -3.66511
C         14.88285       -6.17150       -2.02224
C         15.10935       -6.45336       -0.72526
C         15.75025       -7.71461       -0.25262
C         15.85070       -8.75271       -1.12339
C         15.79440      -10.13025       -0.67131
C         15.31872      -11.24919       -1.30781
C         14.56626      -11.31624       -2.66368
C         15.05485      -10.40332       -3.82539
N         16.47836      -10.52878       -4.11717
C         14.19633      -12.69221       -3.27501
N         15.33084      -13.47626       -3.74863
C         15.29492      -12.26357       -0.23889
C         14.89232      -13.55316       -0.21445
C         14.77164      -14.36730        1.06043
C         15.29559      -13.65199        2.29614
C         15.73099      -12.38101        2.28732
C         15.71614      -11.66462        1.03691
C         15.96219      -10.37393        0.77811
C         16.18028       -9.25024        1.66752
C         16.02441       -7.99916        1.17909
C         13.33411      -14.82754        1.22121
C         12.35800      -14.20159        1.89657
H          5.58995       -5.56672        9.21540
H          2.42114       -3.01128        7.15431
H          5.35165       -1.47575        4.10704
H          7.81390       -2.35604        2.85619
H          6.36335       -1.71170        2.14303
H          6.34363       -3.38523        2.69353
H          9.11311       -2.95582        7.28296
H         10.37969       -3.54160        6.21100
H          9.32833       -4.71202        7.01669
H          9.36450       -3.69607        3.58050
H          7.83092       -6.20205        4.48822
H         11.03473       -5.50597        3.08156
H         11.69071       -5.92895        1.53263
H         10.60180       -7.96489        3.59233
H         12.31528       -7.54904        3.38428
H         11.43828       -8.39144        2.11740
H          7.29086       -6.30243       -0.57554
H          6.37481       -5.78688        1.87717
H         11.41807       -8.36156        0.13829
H         12.90929       -7.43056        0.23548
H         13.14014       -9.57999       -0.92641
H         13.35901       -8.32605       -2.17479
H         11.85425       -9.21297       -2.07095
H         10.45246       -6.77428       -4.08152
H          8.56120       -7.35555       -2.27367
H         11.17377       -2.98519       -5.97203
H         15.73379       -2.90216       -5.70928
H         15.44196       -6.71228       -2.78345
H         14.61260       -5.87040        0.04682
H         15.75493       -8.60600       -2.17983
H         13.57130      -10.93326       -2.41838
H         14.79891       -9.35727       -3.64553
H         14.49473      -10.63821       -4.73860
H         16.66191      -11.52352       -4.28626
H         16.68716      -10.05289       -4.99214
H         13.53168      -12.52199       -4.13303
H         13.57176      -13.26554       -2.58597
H         15.99129      -13.60338       -2.97972
H         15.00556      -14.40280       -4.01492
H         14.58539      -14.07531       -1.10389
H         15.39176      -15.26549        0.93223
H         15.30528      -14.21927        3.22306
H         16.09425      -11.90266        3.18872
H         16.38389       -9.42941        2.71815
H         16.12143       -7.14403        1.84388
H         13.07794      -15.74835        0.69883
H         12.52802      -13.25953        2.40912
H         11.35223      -14.61019        1.93020
