86

C         11.62022        2.35678        6.35815
S         12.92160        2.91616        7.33320
C         14.08004        2.55635        6.11569
C         13.48155        2.03593        4.99531
C         12.06340        1.91905        5.13433
N         11.23451        1.44119        4.17641
C         11.90426        1.10368        3.02737
C         13.36185        1.22408        2.89210
N         13.98934        0.75788        1.71589
C         15.42988        0.87951        1.59183
N         14.17438        1.68330        3.88841
N         11.12235        0.55812        1.94378
C          9.84579       -0.00003        2.42526
C         11.10815        1.06767        0.65236
C         11.22953        2.33304        0.23422
C         10.85517        2.74454       -1.10471
C         11.05252        2.01394       -2.34188
C         10.44103        2.60779       -3.37108
C          9.83417        3.82425       -2.80378
O          9.16660        4.61852       -3.42328
C         10.14878        3.86003       -1.35215
C          9.59101        4.73099       -0.39552
S          7.91235        4.57852        0.00498
C          8.00939        5.78000        1.22249
C          9.26567        6.32424        1.28876
C         10.17798        5.69809        0.40112
N         11.49149        6.00876        0.35681
C         11.88649        7.06145        1.14627
C         10.90464        7.73590        1.99289
N         11.01614        8.94974        2.67237
C         11.82728        9.13407        3.86164
N          9.59381        7.33942        2.11737
N         13.27457        7.37585        1.02012
C         13.83687        8.52722        1.70399
C         14.19036        6.58072        0.31282
C         14.03715        5.85448       -0.79897
C         15.08349        5.17456       -1.47234
S         14.75268        4.68787       -3.08800
C         16.31723        4.05082       -3.39121
C         17.06983        4.14726       -2.23900
C         16.36039        4.78621       -1.20685
C         17.21390        4.89581       -0.06691
C         18.50384        4.38761       -0.27355
C         19.65829        4.42175        0.67931
S         18.76412        3.62640       -1.82593
C         16.68584        3.56439       -4.70978
S         18.33555        3.43644       -5.20028
C         17.96965        2.91898       -6.80150
C         16.60356        2.86771       -6.95441
C         15.88362        3.18766       -5.77719
S         14.13093        3.01188       -5.90341
C         14.10600        2.29446       -7.51317
S         12.75740        1.54748       -8.15125
S         15.65480        2.37704       -8.35263
C         19.06096        2.60356       -7.66013
C         19.05476        2.86851       -8.97071
H         10.60471        2.38442        6.72566
H         15.13086        2.74787        6.27705
H         13.49582        1.13583        0.91451
H         15.67316        1.38785        0.65286
H         15.86660       -0.12323        1.54608
H         15.92974        1.42805        2.39519
H         10.01582       -0.89310        3.03390
H          9.21382       -0.30412        1.57975
H          9.25410        0.73276        2.98814
H         10.80769        0.28983       -0.04860
H         11.42527        3.11683        0.96358
H         11.57780        1.07150       -2.40206
H         10.35211        2.29243       -4.39172
H          7.13999        6.03190        1.81064
H         10.03824        9.04446        2.97691
H         11.30944        9.82751        4.53482
H         12.75283        9.66004        3.62336
H         12.03346        8.21117        4.40634
H         13.25548        9.43562        1.53316
H         14.83664        8.76878        1.31455
H         13.99562        8.29110        2.75889
H         15.18131        6.67326        0.74526
H         13.06603        5.85604       -1.28578
H         16.93372        5.34960        0.87471
H         19.43198        5.04329        1.55204
H         20.54697        4.84431        0.19698
H         19.90049        3.41426        1.03247
H         19.94519        2.14731       -7.21996
H         18.22913        3.35857       -9.47472
H         19.91254        2.60458       -9.58179
