112

C          5.93402        0.50400        5.94533
S          6.26216        0.99330        4.35703
C          4.92350        2.09862        4.31285
C          4.21864        2.03468        5.51586
C          4.81317        1.11159        6.45815
C          4.27700        0.87561        7.83769
C          2.84895        1.39674        8.00095
C          2.64608        2.79440        7.38571
N          3.43575        3.81234        8.09531
C          2.95660        2.78999        5.86463
C          4.65169        2.83884        3.10807
C          5.65013        3.30189        2.33335
C          5.56202        3.87048        1.01902
C          5.40930        3.02333       -0.05937
S          5.73928        3.80211       -1.53071
C          6.07961        5.28326       -0.74700
C          5.83403        5.24647        0.62005
C          5.94902        6.48505        1.32870
C          5.60340        6.52452        2.81684
C          6.79678        6.24074        3.71546
C          6.35898        7.70973        0.62977
C          6.38713        9.01722        1.41621
C          5.06437        9.77284        1.32187
C          6.71269        7.66605       -0.76957
C          7.20817        8.64761       -1.74775
C          7.45070        8.07213       -2.98111
S          7.04215        6.43291       -3.03803
C          6.55916        6.43202       -1.40248
C          7.41809       10.06426       -1.55968
C          8.28998       10.82340       -2.25712
C          8.44203       12.24268       -2.09940
S          7.08477       13.22695       -1.67591
C          7.96060       14.66913       -1.84359
C          9.27561       14.46323       -2.20239
C         10.24887       15.57994       -2.41450
C          9.56151       13.04952       -2.33763
C         10.85970       12.56837       -2.75206
C         11.43512       11.40386       -2.40843
C         12.68770       10.94822       -2.97221
C         12.97718        9.64181       -3.07496
C         14.15730        9.14703       -3.75847
C         14.25456        7.96495       -4.38797
C         15.40516        7.54276       -5.15232
C         15.17297        6.46837       -5.92180
C         13.81219        5.96169       -5.82454
S         12.96335        6.79711       -4.52383
C         13.22562        5.06765       -6.64493
C         13.83418        4.41737       -7.79238
C         12.95398        3.78956       -8.58827
C         11.58602        3.90557       -8.13527
S         11.51931        4.62149       -6.54562
C         10.51339        3.59570       -8.88502
C          9.12869        3.93522       -8.52937
C          8.21036        3.09385       -7.83806
O          8.68138        1.80966       -7.63441
C          8.36613        1.17156       -6.40195
C          6.86950        3.51238       -7.54027
O          6.05203        2.62855       -6.87245
C          4.66250        2.66159       -7.18831
C          6.38524        4.79562       -7.87552
C          7.26116        5.65161       -8.57777
C          8.65546        5.22343       -8.91970
N          9.32736        6.16650       -9.60851
S          8.30991        7.46419       -9.76925
N          6.95571        6.88639       -9.00637
H          6.57501       -0.21897        6.43078
H          4.93851        1.37005        8.56026
H          4.29895       -0.19633        8.07059
H          2.58432        1.39970        9.06575
H          2.15583        0.69707        7.51461
H          1.59354        3.07358        7.51492
H          4.42822        3.67614        7.89880
H          3.32336        3.70344        9.10188
H          3.00939        3.81942        5.49045
H          2.12141        2.30297        5.34402
H          3.61544        2.98780        2.81898
H          6.67945        3.16758        2.66265
H          5.20556        1.96203       -0.05143
H          5.13889        7.48288        3.08818
H          4.80742        5.79993        3.01783
H          6.47795        6.23991        4.76212
H          7.57555        7.00215        3.60476
H          7.25959        5.27695        3.49642
H          7.21194        9.64822        1.07541
H          6.63102        8.84064        2.46739
H          4.20699        9.12759        1.54044
H          4.90722       10.19215        0.32347
H          5.05255       10.60341        2.03552
H          7.82502        8.54048       -3.88126
H          6.79391       10.54729       -0.82300
H          8.93889       10.35518       -2.99172
H          7.46491       15.61576       -1.67556
H          9.78287       16.55408       -2.22973
H         10.61865       15.57950       -3.44490
H         11.09956       15.48119       -1.73296
H         11.40372       13.21676       -3.43717
H         10.93786       10.72299       -1.72260
H         13.35223       11.69559       -3.39872
H         12.26377        8.90316       -2.71171
H         14.99823        9.83642       -3.80755
H         16.34383        8.07981       -5.13515
H         15.91358        6.05111       -6.58852
H         14.88975        4.47643       -8.01576
H         13.22183        3.30448       -9.51727
H         10.63974        3.21418       -9.89220
H          7.31609        0.88268       -6.33261
H          8.67704        1.77310       -5.54253
H          8.92638        0.23044       -6.37472
H          4.16800        1.89471       -6.58410
H          4.49959        2.42035       -8.24374
H          4.19435        3.61432       -6.92609
H          5.39552        5.15224       -7.63074
