116

C          0.51121        9.71478       -6.58590
S          0.74366        9.45554       -4.92865
C          2.36038        8.90340       -5.16221
C          2.70634        8.92313       -6.51098
C          1.62541        9.40595       -7.33116
C          1.73773        9.58413       -8.81143
C          2.95687        8.86931       -9.39819
C          4.23401        9.05974       -8.55821
N          4.67078       10.46354       -8.53320
C          4.03206        8.50468       -7.12270
C          3.13992        8.46147       -4.05657
C          3.02749        8.98314       -2.82526
C          3.81010        8.49688       -1.75067
O          3.36544        8.54353       -0.43558
C          5.06216        7.94758       -1.69418
C          6.18145        7.59964       -2.51735
O          6.31797        7.72269       -3.71958
N          7.11081        7.10553       -1.63227
C          6.70983        7.14025       -0.30882
O          7.34648        6.81208        0.65991
C          5.38100        7.68090       -0.36226
C          4.34373        8.07667        0.43782
C          4.19994        8.08637        1.84587
C          3.07273        8.54872        2.41175
C          2.82856        8.58954        3.81999
C          3.43003        7.63599        4.61520
S          3.05900        7.83906        6.24135
C          2.03148        9.17082        5.90716
C          1.98669        9.52723        4.56825
C          1.18600       10.68710        4.23251
C          1.17905       11.19587        2.78696
C          2.28313       12.19060        2.46343
C          0.38832       11.37980        5.28028
C         -0.44310       12.60462        4.86095
C          0.26876       13.94666        4.98385
C          0.42248       10.89495        6.65556
C         -0.25498       11.22231        7.93350
C          0.23866       10.48135        8.99546
S          1.41430        9.37342        8.54319
C          1.29470        9.83064        6.90267
C         -1.27679       12.19733        8.22284
C         -2.17684       12.09514        9.22310
C         -3.09858       13.15797        9.58923
C         -4.14175       13.04022       10.42762
C         -5.04291       14.10843       10.79643
C         -6.04852       13.71659       11.59437
C         -6.01407       12.30275       11.92203
S         -4.61121       11.54564       11.17497
C         -6.87672       11.61129       12.68713
C         -8.05663       12.10680       13.36540
C         -8.66694       11.18613       14.12952
C         -8.02734        9.88667       14.09941
S         -6.67090        9.89490       13.01472
C         -8.41773        8.80628       14.79540
C         -7.82380        7.47872       14.68164
C         -8.15422        6.37628       15.36554
C         -7.70389        5.02636       14.86867
O         -6.79387        4.76872       14.11375
C         -8.67208        4.06355       15.44160
C         -8.71421        2.69325       15.24994
C         -9.75955        1.97521       15.85509
C        -10.78786        2.67728       16.55762
C        -11.84954        1.96551       17.12995
C        -11.87310        0.57827       17.06189
C        -10.85858       -0.11179       16.41385
C         -9.81336        0.57379       15.79827
F        -10.87224       -1.45121       16.38336
F        -12.87770       -0.08696       17.64799
C        -10.71536        4.06883       16.71865
C         -9.61022        4.74432       16.23182
C         -9.11141        6.12426       16.43832
C         -9.19100        6.78132       17.62099
C         -8.30089        7.84380       17.95233
N         -7.56091        8.68242       18.26397
C        -10.03757        6.34503       18.68839
N        -10.73294        5.98601       19.53421
H         -0.43716       10.09626       -6.93250
H          1.80226       10.65821       -9.02381
H          0.82930        9.21268       -9.29922
H          3.11516        9.21188      -10.42827
H          2.74233        7.79381       -9.46186
H          5.04269        8.49230       -9.03541
H          4.05178       11.00537       -7.92911
H          4.60650       10.87334       -9.46323
H          4.87444        8.80748       -6.48782
H          4.05202        7.40782       -7.17342
H          3.84935        7.66887       -4.26720
H          2.32550        9.78058       -2.59320
H          8.03081        6.82280       -1.92199
H          5.02248        7.72302        2.45540
H          2.27809        8.89214        1.76540
H          4.08797        6.83257        4.30511
H          1.23141       10.34299        2.11626
H          0.23616       11.63811        2.47044
H          3.25618       11.91107        2.87111
H          2.04193       13.17354        2.86307
H          2.37522       12.30862        1.37861
H         -1.35783       12.69769        5.44853
H         -0.82083       12.47116        3.84331
H          0.67282       14.10557        5.98706
H         -0.43321       14.76075        4.76671
H          1.08725       14.04942        4.27765
H         -0.03291       10.53299       10.04165
H         -1.28754       13.09950        7.62345
H         -2.21887       11.18867        9.83253
H         -2.89168       14.12738        9.14794
H         -4.91040       15.12346       10.44741
H         -6.81344       14.38740       11.96107
H         -8.41062       13.12350       13.26375
H         -9.56247       11.38126       14.70182
H         -9.27529        8.91483       15.45220
H         -7.09373        7.35108       13.87944
H         -7.93905        2.20064       14.66790
H        -12.65184        2.47274       17.65990
H         -9.03751       -0.00247       15.30129
H        -11.50135        4.59069       17.25787
