63

C          0.73624       -1.38657        1.18258
S          2.43633       -1.28992        1.25574
C          2.47267        0.24249        0.45401
C          1.17106        0.67490        0.18975
C          0.18347       -0.27441        0.59714
C         -1.22714       -0.11719        0.43896
N         -2.37350       -0.00699        0.31443
C          0.87490        1.92709       -0.43935
N          0.65246        2.94709       -0.94004
C          3.70606        0.92554        0.20851
C          4.86861        0.28810       -0.00838
C          6.09000        0.99133       -0.20324
S          7.57675        0.25630        0.28758
C          8.55942        1.59010       -0.20321
C          7.76339        2.57172       -0.74139
C          6.41444        2.20232       -0.72618
C          5.64732        3.23124       -1.33438
C          6.41163        4.32772       -1.74746
C          5.88432        5.55603       -2.41681
S          8.13377        4.19373       -1.46944
C          9.98741        1.59899       -0.04949
S         10.95269        2.99727        0.27193
C         12.46974        2.13524        0.27970
C         12.16999        0.82408        0.09623
C         10.83060        0.54332       -0.08297
O         10.49179       -0.76179       -0.28780
C         11.74179       -1.33840       -0.21682
N         11.75935       -2.76345       -0.38180
O         12.86574       -3.31176       -0.30877
O         10.67902       -3.33435       -0.58268
C         12.79339       -0.44101        0.00058
C         13.72884        2.80353        0.49065
S         15.05662        2.01858        1.27417
C         16.08637        3.39231        1.17751
C         15.44249        4.42037        0.54287
C         14.14113        4.06242        0.17673
C         13.55170        5.16929       -0.50222
C         14.39596        6.28423       -0.60467
C         14.06858        7.58519       -1.26907
S         15.98649        6.09174        0.10070
C         17.42355        3.40193        1.68511
N         18.06110        4.53585        2.16185
C         19.30343        4.14393        2.51824
N         20.49705        4.53373        3.01878
C         21.27137        3.39520        3.03806
N         20.61404        2.34008        2.58997
C         19.38442        2.81682        2.26856
N         18.21551        2.34190        1.76741
H          0.23491       -2.25830        1.58455
H          3.66937        2.01146        0.20894
H          4.92267       -0.79842       -0.00273
H          4.57581        3.20324       -1.49025
H          6.56504        6.40708       -2.32102
H          4.92518        5.84475       -1.97318
H          5.72168        5.35568       -3.48055
H         13.84230       -0.69529        0.07568
H         12.55301        5.18008       -0.92209
H         14.68777        8.40695       -0.89500
H         13.02169        7.85123       -1.08923
H         14.22084        7.50212       -2.35006
H         17.65588        5.46109        2.20520
H         20.78427        5.45606        3.31855
H         22.29561        3.40091        3.38733
