74

C          9.78093       -0.35322      -10.69239
S          9.83963       -1.64905       -9.58634
C         10.99555       -0.84589       -8.57637
C         11.37881        0.35834       -9.15556
C         10.64001        0.66327      -10.34172
C         10.75244        1.86512      -11.11253
N         10.82301        2.84080      -11.73594
C         12.40955        1.19820       -8.61652
N         13.24663        1.85671       -8.15869
C         11.37387       -1.50827       -7.36842
C         11.70235       -0.84384       -6.24831
C         11.96195       -1.51437       -4.98734
C         11.32956       -1.22914       -3.81507
O         11.61412       -1.93481       -2.63698
C         12.47332       -2.96729       -2.76892
C         13.11245       -3.27075       -3.98689
C         13.90722       -4.38123       -3.92331
S         13.88019       -5.05519       -2.33844
C         12.79690       -3.84531       -1.76408
O         12.91475       -2.53317       -5.10172
C         10.22753       -0.28453       -3.70723
C          9.52232        0.12245       -2.63713
C          9.69844       -0.21102       -1.21703
C         10.50452        0.52090       -0.33882
C         10.54019        0.25290        1.08554
N         11.30753        1.05022        1.85924
C         11.99318        2.08354        1.29800
C         11.97558        2.30770       -0.05403
N         11.23178        1.52877       -0.87505
C         12.71474        3.37103       -0.66672
N         13.33493        4.24391       -1.11446
C         12.65944        2.96419        2.21264
N         13.16500        3.71475        2.93705
C          9.78501       -0.78751        1.69681
C          8.92548       -1.52560        0.81185
C          8.89158       -1.23343       -0.66555
N          8.03118       -2.01409       -1.34305
S          7.34109       -3.03964       -0.25050
N          8.05418       -2.49969        1.13383
C          9.82107       -1.13097        3.15299
S          9.65886       -2.79525        3.65661
C          9.61381       -2.45934        5.32936
C          9.90423       -1.13328        5.52577
C         10.00027       -0.42667        4.31328
C         10.20775        0.94994        4.64346
C         10.28977        1.21340        6.01879
C         10.47613        2.55673        6.65660
S         10.13857       -0.18236        7.05665
C          9.24382       -3.40252        6.36142
O          8.61253       -2.94357        7.49836
C          8.30358       -3.97761        8.34173
C          8.73803       -5.13151        7.72829
C          9.34573       -4.78843        6.47404
C          9.93684       -5.82297        5.59154
F         10.51568       -5.36948        4.45918
F         10.89852       -6.52482        6.25232
F          8.99975       -6.73569        5.21662
C          7.65825       -3.83819        9.60070
C          7.29178       -2.64052       10.06979
H          9.12067       -0.40537      -11.54952
H         11.30423       -2.59527       -7.33613
H         11.72726        0.24168       -6.19872
H         14.48984       -4.83991       -4.71145
H         12.45164       -3.85639       -0.74241
H          9.88165        0.12246       -4.65657
H          8.68344        0.79390       -2.81759
H         10.28903        1.75691        3.93005
H         10.22120        2.55058        7.72169
H          9.82870        3.29361        6.16917
H         11.51369        2.89055        6.55412
H          8.64164       -6.13099        8.13642
H          7.46477       -4.73202       10.18908
H          7.46679       -1.72467        9.51590
H          6.80189       -2.55346       11.03488
