68

C         13.44097       -5.00399        1.04141
S         11.79457       -5.12580        0.63415
C         11.76389       -3.54301       -0.07570
C         13.02427       -2.96113        0.00325
C         13.98490       -3.80564        0.64528
C         15.36230       -3.48390        0.86035
N         16.47903       -3.22656        1.03217
C         13.34675       -1.66289       -0.51926
N         13.59780       -0.60474       -0.92454
C         10.52053       -3.11506       -0.63023
C         10.12894       -1.83067       -0.67150
C          8.85697       -1.36566       -1.21220
C          8.48838       -0.06148       -1.30556
O          7.24141        0.33465       -1.80775
C          6.43658       -0.66785       -2.22503
C          6.81467       -2.02074       -2.13403
C          5.86435       -2.88346       -2.61204
S          4.48827       -2.01670       -3.17764
C          5.19221       -0.49705       -2.77548
O          8.00348       -2.40437       -1.62108
C          9.35795        1.05389       -0.99478
C          9.05655        2.05242       -0.14604
C          9.93144        3.15968        0.13202
S         11.42420        3.36058       -0.70339
C         11.87503        4.78096        0.13820
C         10.86229        5.15106        1.01421
C          9.77134        4.20746        1.02895
S          8.34749        4.35838        2.08784
C          8.88768        5.52355        3.25119
O          8.92847        5.41010        4.45800
C          9.20707        6.76219        2.44427
O          8.45784        7.68471        2.19514
S         10.88956        6.59253        2.05520
C         13.15565        5.39830       -0.16224
S         13.34533        7.11050       -0.30805
C         15.04532        7.04139       -0.53174
C         15.43803        5.73373       -0.66186
C         14.36776        4.85095       -0.46776
C         14.85456        3.52017       -0.65549
C         16.21188        3.45692       -1.00425
C         16.98213        2.21868       -1.34804
S         17.05201        4.99184       -1.02632
C         15.89258        8.19367       -0.69727
O         16.95322        8.14890       -1.57102
C         17.59764        9.35588       -1.61047
C         16.93042       10.19465       -0.74104
C         15.87359        9.45742       -0.11464
C         15.01501       10.03146        0.94951
F         14.15061        9.16464        1.52355
F         15.77453       10.52950        1.96367
F         14.28075       11.07416        0.48025
C         18.73452        9.64084       -2.41115
C         19.55245        8.66766       -2.82811
H         13.93636       -5.82920        1.54798
H          9.84985       -3.88974       -1.00774
H         10.76625       -1.05339       -0.25314
H          5.89798       -3.96293       -2.66117
H          4.65972        0.42451       -2.96402
H         10.30918        1.02175       -1.52655
H          8.09701        2.01862        0.36860
H         14.25497        2.61941       -0.59271
H         17.99982        2.43957       -1.68679
H         16.47699        1.67512       -2.15407
H         17.04876        1.55921       -0.47725
H         17.19962       11.22342       -0.53653
H         18.95093       10.67562       -2.65931
H         19.38482        7.62443       -2.57529
H         20.42906        8.90250       -3.42306
