112

C         -7.25100      -15.54087        1.98250
S         -7.80755      -14.21293        2.90507
C         -6.28042      -13.42075        2.77697
C         -5.39936      -14.11943        1.98033
C         -5.94289      -15.31466        1.58140
C         -5.24272      -16.19241        0.77649
C         -3.92103      -15.91635        0.30448
S         -3.44989      -16.84406       -1.58113
C         -3.10871      -19.03197       -1.84112
C         -2.34406      -20.14348       -0.96170
C         -3.31138      -14.66256        0.79292
S         -1.51979      -14.38465        1.24416
C         -0.91979      -12.82206        0.38716
C         -1.39213      -11.45142        0.78753
C         -4.06701      -13.76205        1.63694
C         -6.07364      -12.19455        3.41441
C         -4.92262      -12.06677        4.06824
N         -4.24105      -10.91820        4.34011
C         -4.49180       -9.69471        3.81544
S         -4.47347       -8.43440        4.98544
C         -4.78593       -7.27569        3.82887
N         -4.82398       -5.88663        4.18679
O         -4.97835       -5.08321        3.28816
O         -4.72882       -5.58119        5.40419
C         -4.94030       -7.79131        2.55956
C         -4.73421       -9.22271        2.50991
C         -4.66474       -9.98462        1.24215
C         -4.75604       -9.44427        0.00134
C         -4.50193       -9.86090       -1.39548
C         -4.01686      -10.90754       -2.10397
C         -3.75232      -10.85944       -3.54166
C         -3.16351      -11.95354       -4.07452
C         -2.81484      -12.97967       -3.10262
S         -3.55215      -12.46314       -1.53452
C         -2.06349      -14.11288       -3.24547
C         -1.61973      -14.93373       -4.36958
C         -0.95518      -16.07695       -4.00925
C         -0.77956      -16.25833       -2.56243
S         -1.15475      -14.74208       -1.88787
C         -0.48025      -17.32113       -1.75358
N         -0.35610      -17.48030       -0.33629
C         -1.00938      -17.79597        0.89662
S          0.21887      -17.62089        2.15166
C         -0.85224      -17.88125        3.40989
N         -0.35562      -17.78926        4.76663
O         -1.14953      -18.11062        5.65849
O          0.81246      -17.42336        4.95153
C         -2.12610      -18.20490        2.99544
C         -2.26763      -18.22374        1.55816
C         -3.56168      -18.49357        0.85389
C         -4.88706      -18.85966        0.72037
C         -5.88974      -18.67253       -0.62357
S         -6.67916      -20.17283       -1.12977
C         -7.47284      -19.47011       -2.49933
C         -7.63151      -18.11601       -2.30475
C         -6.51313      -17.61969       -1.52393
C         -6.29797      -16.16699       -1.77651
C         -7.14066      -15.35313       -2.60101
S         -6.59756      -13.62585       -2.81909
C         -6.65299      -13.24756       -4.62170
C         -5.69660      -14.06041       -5.47191
C         -8.35207      -15.87729       -3.05195
S         -9.72206      -14.78779       -3.54552
C         -9.91476      -13.76514       -2.00258
C        -10.54047      -12.39599       -2.24984
C         -8.54782      -17.29378       -3.06058
C         -7.86007      -20.23522       -3.63642
C         -6.97286      -21.03201       -4.25089
H         -7.89936      -16.38304        1.77684
H         -5.86784      -16.98449        0.52953
H         -2.58320      -19.04437       -2.79681
H         -4.08990      -19.45101       -2.05565
H         -1.30585      -19.89613       -0.73362
H         -2.31640      -21.10678       -1.48736
H         -2.82667      -20.44477       -0.02014
H         -1.07166      -12.81203       -0.68095
H          0.16986      -12.86322        0.47095
H         -2.44754      -11.43870        1.01202
H         -1.24671      -10.76938       -0.06564
H         -0.81935      -11.05054        1.62235
H         -3.59197      -12.89973        2.07339
H         -6.72225      -11.35939        3.17274
H         -4.33924      -12.94602        4.35661
H         -3.86184      -10.93662        5.28834
H         -5.13035       -7.16018        1.70507
H         -4.44591      -11.03845        1.31895
H         -5.04525       -8.39237       -0.02144
H         -4.71141       -8.98775       -2.02548
H         -3.97522       -9.97114       -4.11891
H         -2.86395      -12.01610       -5.11060
H         -1.87404      -14.68410       -5.39071
H         -0.61277      -16.81544       -4.71855
H         -0.08304      -18.20901       -2.24012
H          0.62887      -17.28587       -0.13134
H         -2.93001      -18.39906        3.69435
H         -3.16428      -18.24254       -0.05343
H         -5.43987      -19.19041        1.59595
H         -5.47856      -15.57644       -1.40700
H         -6.37384      -12.18905       -4.72276
H         -7.66900      -13.32141       -5.01456
H         -4.65104      -13.84284       -5.23636
H         -5.83078      -13.80278       -6.53016
H         -5.86084      -15.13056       -5.36180
H         -8.96282      -13.60141       -1.49478
H        -10.54067      -14.33079       -1.30723
H         -9.92746      -11.77406       -2.91144
H        -10.62701      -11.85477       -1.29759
H        -11.54787      -12.47458       -2.66821
H         -9.39571      -17.71352       -3.58996
H         -8.80697      -20.02386       -4.12626
H         -5.96821      -21.18886       -3.86898
H         -7.21881      -21.51161       -5.19178
