89

C         -1.06838       -6.92026        9.53490
S          0.29627       -7.73640        8.88763
C         -0.26089       -7.56835        7.24534
C         -1.48894       -6.93850        7.25331
C         -1.93233       -6.56614        8.53735
S         -3.47136       -5.74470        8.64828
C         -3.81280       -5.76663        6.91671
O         -4.81408       -5.27654        6.42637
S         -2.57539       -6.55600        5.92744
C          0.55803       -8.08402        6.19505
C          0.56540       -7.53672        4.96647
C          1.37549       -8.01153        3.88730
S          2.91636       -8.73286        4.18997
C          3.28363       -8.98350        2.52681
C          2.26399       -8.47464        1.74131
C          1.16533       -7.93140        2.51916
C          0.01403       -7.37322        1.93398
C          0.04410       -7.41347        0.52463
F         -1.00881       -6.91273       -0.14120
C          1.12050       -7.94059       -0.23275
F          1.03146       -7.94123       -1.57253
C          2.28605       -8.46943        0.33633
C          4.52385       -9.62358        2.22604
C          4.64952      -10.40630        1.14801
C          5.87376      -11.03364        0.73211
C          6.00898      -11.78466       -0.37935
C          4.93432      -12.05455       -1.40364
C          7.32782      -12.44211       -0.68026
N          7.32302      -13.74851       -0.05427
C          8.03572      -14.81698       -0.52833
C          8.07148      -16.05880       -0.03430
C          8.82265      -17.12447       -0.66399
C          8.64131      -17.59813       -1.90703
C          9.44608      -18.64006       -2.49560
C          9.11174      -18.92783       -3.76080
C          7.99349      -18.15222       -4.26825
S          7.41024      -17.05457       -3.02276
C          7.43639      -18.27440       -5.48690
C          7.86948      -19.17923       -6.53592
C          7.01500      -19.26451       -7.56206
C          5.83133      -18.44919       -7.39051
S          5.99855      -17.40056       -6.00885
C          4.74303      -18.57169       -8.15659
C          3.47040      -17.89113       -7.97270
C          2.36115      -18.04975       -8.71765
C          1.00500      -17.49232       -8.50652
C          0.69440      -16.29378       -7.94977
C         -0.63569      -15.78219       -7.90233
N         -1.71703      -15.36613       -7.87484
C          1.68335      -15.40390       -7.44466
N          2.48361      -14.66725       -7.03980
C          0.06087      -18.39332       -9.23469
C          0.80820      -19.24455      -10.05072
C          2.25209      -19.02632       -9.85044
O          3.11892      -19.54809      -10.50987
C          0.25914      -20.18691      -10.91079
C         -1.14831      -20.27591      -10.96961
C         -1.91029      -19.45080      -10.12728
C         -1.32401      -18.51791       -9.23418
S         -3.60135      -19.73170      -10.35015
C         -3.31770      -20.87867      -11.55524
C         -1.98800      -21.10589      -11.78785
Br        -4.69079      -21.75076      -12.48324
H         -1.16203       -6.75865       10.60128
H          1.19686       -8.93137        6.43447
H         -0.05787       -6.67871        4.74146
H         -0.83217       -6.95309        2.45951
H          3.08528       -8.81767       -0.30141
H          5.36263       -9.48081        2.90349
H          3.78027      -10.60965        0.53675
H          6.73331      -10.90128        1.38954
H          4.05954      -11.40732       -1.30969
H          4.59393      -13.09150       -1.32536
H          5.32011      -11.88855       -2.41495
H          8.16243      -11.85180       -0.28318
H          7.48095      -12.51460       -1.76363
H          6.48212      -13.99441        0.46345
H          8.60601      -14.57512       -1.42488
H          7.56743      -16.29989        0.89804
H          9.59322      -17.56018       -0.03253
H         10.24400      -19.13265       -1.95891
H          9.61551      -19.68698       -4.34011
H          8.78104      -19.75685       -6.48362
H          7.15646      -19.91682       -8.41419
H          4.79523      -19.29530       -8.96804
H          3.43629      -17.24689       -7.09862
H          0.89725      -20.81891      -11.52233
H         -1.97343      -17.92961       -8.59625
H         -1.61442      -21.81334      -12.51879
