76

C         -0.97314        6.01811        2.71463
S          0.07473        4.68278        2.70425
C          0.96895        5.27420        1.34530
C          0.46926        6.51023        0.91928
C         -0.66144        6.90638        1.71625
S         -1.54475        8.36885        1.45501
O         -1.05680        9.26335        2.48263
O         -2.92670        7.94863        1.36748
C         -0.97789        8.90788       -0.14321
C          0.53198        8.77760       -0.25926
C          0.99297        7.31757       -0.24315
C          2.08058        4.45554        0.82085
N          2.34934        3.29037        1.43427
C          3.35554        2.56319        0.92483
C          4.09176        2.95388       -0.16760
C          3.74689        4.16798       -0.72396
N          2.74178        4.93027       -0.24695
C          4.47657        4.68269       -1.89122
C          4.60552        5.99257       -2.15780
C          5.32879        6.51891       -3.29438
C          6.39902        7.34025       -3.21832
C          7.09083        7.86983       -2.05850
C          8.15238        8.67457       -2.25032
C          8.62135        9.03276       -3.58801
C          8.02304        8.57296       -4.70551
C          6.87707        7.68508       -4.57596
C          6.09457        7.08718       -5.50829
C          5.08149        6.33295       -4.73664
C          4.07995        5.59743       -5.24089
C          6.24557        7.19654       -6.96794
N          5.13900        7.10136       -7.73025
C          5.30884        7.20032       -9.05961
C          6.52994        7.39985       -9.65213
C          7.60531        7.47578       -8.79393
N          7.48329        7.37576       -7.45969
C          8.95476        7.67099       -9.33138
C         10.07575        7.27068       -8.70450
C         11.37144        7.39742       -9.30058
S         11.74182        8.71802      -10.35809
C         13.33079        8.18372      -10.62712
C         13.63235        7.03188       -9.93471
C         12.49864        6.59419       -9.16496
S         12.56400        5.13593       -8.21900
O         11.82457        4.16803       -8.99636
O         12.17905        5.54052       -6.88408
C         14.29247        4.70025       -8.21183
C         14.92515        4.88635       -9.58192
C         14.97160        6.36062       -9.97602
H         -1.77086        6.09092        3.44245
H         -1.29028        9.95062       -0.25465
H         -1.48966        8.30695       -0.90172
H          1.01786        9.32331        0.55918
H          0.86537        9.24257       -1.19435
H          2.08771        7.32962       -0.22765
H          0.67891        6.82845       -1.17391
H          3.55843        1.63021        1.44204
H          4.90298        2.34443       -0.54116
H          4.93853        3.94257       -2.53892
H          4.18293        6.73823       -1.48928
H          6.75345        7.61116       -1.06215
H          8.69863        9.08635       -1.40611
H          9.48081        9.69339       -3.65821
H          8.38883        8.85835       -5.68472
H          3.92881        5.48611       -6.30873
H          3.36373        5.08923       -4.60446
H          4.40448        7.10595       -9.65355
H          6.63153        7.46608      -10.72651
H          8.99107        8.13285      -10.31241
H         10.00205        6.77420       -7.73665
H         13.97783        8.74870      -11.28473
H         14.35811        3.65489       -7.89249
H         14.79224        5.31995       -7.45927
H         14.36618        4.31651      -10.33375
H         15.94731        4.49045       -9.57024
H         15.39219        6.44261      -10.98584
H         15.64912        6.90062       -9.30250
