110

C          8.27532       -1.09101        3.55872
S          7.50779       -0.61011        5.00464
C          6.22378       -1.73304        4.79193
C          6.34496       -2.39517        3.57552
C          7.52574       -2.00871        2.85355
C          7.87860       -2.53240        1.49501
C          6.77265       -3.37207        0.83017
C          5.95339       -2.51246       -0.04307
N          5.28974       -1.86495       -0.74055
C          5.83379       -4.13566        1.78615
C          6.44731       -5.39428        2.24478
N          6.88630       -6.41935        2.56436
C          5.32041       -3.30861        2.97092
N          5.21345       -1.80266        5.71142
C          4.62281       -2.92771        6.22653
C          5.23868       -4.15976        6.32453
S          4.27405       -5.31245        7.13901
C          2.99938       -4.18856        7.32955
C          3.29579       -2.95378        6.79052
N          2.40675       -1.92192        6.68699
C          1.23200       -1.69756        7.38350
C          0.95789       -1.90625        8.68090
C         -0.32371       -1.59186        9.28898
C         -0.53359       -0.70598       10.27595
C         -1.83067       -0.36283       10.81912
C         -1.83264        0.79369       11.50303
C         -0.53093        1.44295       11.52434
S          0.70329        0.28585       11.00106
C         -0.27429        2.75220       11.71289
C         -1.24536        3.81858       11.87626
C         -0.74618        5.03482       11.59602
C          0.66453        5.02216       11.24501
S          1.33605        3.44560       11.54725
C          1.31546        6.06258       10.69294
C          2.71710        6.17704       10.21325
C          3.81215        5.55622       10.83715
C          5.09746        5.71645       10.31593
C          5.31592        6.53171        9.18856
C          4.25463        7.17453        8.57278
C          2.96224        6.99174        9.08595
C          6.71149        6.47251        8.81019
C          7.39300        5.57965        9.66288
C          6.40915        5.01552       10.72603
C          6.28270        3.47277       10.61813
C          5.76543        2.93029        9.28645
C          6.90171        5.44649       12.13988
C          6.12720        4.89208       13.33553
C          8.74849        5.29701        9.45738
C          9.43743        5.92925        8.40023
C          8.73130        6.81959        7.56496
C          7.37612        7.09969        7.76952
C         10.85556        5.59662        8.12458
C         11.73308        6.44558        7.56033
C         13.10337        6.14062        7.27258
S         14.21876        7.46653        7.32696
C         15.54090        6.49872        6.88352
C         15.18017        5.18903        6.66850
C         13.76628        4.97437        6.88672
C         13.14504        3.62687        6.62574
C         14.16419        2.47871        6.53413
C         14.55412        2.02381        7.89136
N         14.87430        1.64956        8.93001
C         15.42637        2.85029        5.72234
C         15.07739        3.03145        4.29638
N         14.78392        3.14221        3.17773
C         16.13509        4.09904        6.27299
H          9.21682       -0.64206        3.26538
H          8.78914       -3.13732        1.58837
H          8.14278       -1.67974        0.85173
H          7.27332       -4.09158        0.16586
H          4.94043       -4.44622        1.22354
H          4.89864       -3.98179        3.72066
H          4.49506       -2.67164        2.62793
H          5.14985       -0.98786        6.32435
H          6.22142       -4.44535        5.97616
H          2.07421       -4.51345        7.78286
H          2.49894       -1.33061        5.86093
H          0.48371       -1.22167        6.74994
H          1.73287       -2.28011        9.34531
H         -1.17595       -2.11156        8.85657
H         -2.70909       -0.97173       10.65591
H         -2.71674        1.21874       11.95768
H         -2.28616        3.64490       12.11293
H         -1.33984        5.93935       11.58454
H          0.73163        6.96168       10.49769
H          3.66686        4.92353       11.70351
H          4.40523        7.78084        7.68552
H          2.13423        7.47666        8.57191
H          5.59813        3.09636       11.38811
H          7.25942        3.01734       10.82377
H          4.67182        2.97953        9.24828
H          6.04607        1.87704        9.18407
H          6.16493        3.46665        8.42268
H          6.91219        6.54181       12.21779
H          7.94447        5.12568       12.26942
H          5.08047        5.19986       13.32901
H          6.56298        5.26609       14.26817
H          6.17238        3.79995       13.38038
H          9.26106        4.59177       10.10631
H          9.22674        7.29532        6.72119
H          6.86311        7.78445        7.10311
H         11.14964        4.60180        8.43432
H         11.41628        7.46335        7.33734
H         16.52567        6.93946        6.79443
H         12.59635        3.69454        5.67729
H         12.41518        3.37631        7.39856
H         13.66724        1.63104        6.04967
H         16.14597        2.01819        5.77523
H         16.86294        4.48163        5.54542
H         16.70721        3.82431        7.16920
