95

C          1.11220       -6.21390       -5.15985
C          1.07500       -5.67090       -3.93372
C          2.10838       -4.79035       -3.25222
C          3.28190       -4.41826       -4.14745
C          4.56314       -4.67733       -3.83414
C          4.83686       -5.33626       -2.58413
C          5.99976       -5.75998       -2.06369
C          7.33498       -5.68455       -2.59146
C          8.33956       -6.21668       -1.87241
C          8.14746       -6.89003       -0.56392
C          9.26963       -7.40057        0.23895
C         10.55121       -7.47123       -0.16697
C         11.67440       -7.77805        0.70001
C         12.34136       -6.92625        1.53923
C         12.02995       -5.51699        1.68354
C         10.87073       -4.81614        1.39333
C         11.10145       -3.44628        1.53545
C         12.30135       -3.27708        2.18156
C         12.83530       -2.01009        2.64211
C         14.02191       -1.44017        2.21186
C         14.21414       -0.22366        2.88188
C         13.13478       -0.01297        3.71123
C         12.93282        1.11472        4.56630
C         12.42816        1.06438        5.81028
C         12.30888        2.24019        6.68941
C         11.40434        2.23500        7.73375
C         11.40719        3.34782        8.54439
N         12.23063        4.39424        8.36456
C         13.06380        4.30087        7.31820
N         13.14119        3.27485        6.45793
N         12.22351       -1.06504        3.48983
C         10.92560       -1.12883        4.15788
C          9.65748       -1.54941        3.43887
N         12.94658       -4.52882        2.10997
C         14.38291       -4.71996        2.28301
C         14.82421       -4.82949        3.72960
O         13.42644       -7.38560        2.31388
C         13.85311       -8.64556        2.05661
C         14.98052       -9.21925        2.58733
S         15.18696      -10.82736        1.99841
C         13.76080      -10.72996        1.03772
C         13.17157       -9.49930        1.17079
O         12.06171       -9.11384        0.51977
C          6.89734       -6.93410       -0.02471
C          5.75911       -6.36490       -0.73873
C          4.43926       -6.27476       -0.40846
C          3.79736       -6.75621        0.88728
C          4.28318       -5.98118        2.15075
N          3.90133       -4.56760        2.20506
C          2.25564       -6.97051        0.94202
N          1.43885       -5.75988        1.04733
C          3.80726       -5.67040       -1.59517
C          2.53200       -5.42142       -1.93226
H          0.28903       -6.82698       -5.51519
H          1.95004       -6.07542       -5.83419
H          0.18872       -5.87268       -3.33133
H          1.60147       -3.84898       -3.00033
H          3.05317       -3.90203       -5.07520
H          5.37529       -4.39408       -4.49195
H          7.51992       -5.19083       -3.53737
H          9.34711       -6.12895       -2.26391
H          9.04935       -7.62444        1.28273
H         10.83763       -7.28188       -1.19710
H          9.93884       -5.21204        1.03479
H         10.41120       -2.66807        1.25227
H         14.69617       -1.85471        1.47627
H         15.06586        0.44117        2.77882
H         13.31168        2.06754        4.19428
H         12.08974        0.13126        6.24470
H         10.72472        1.41408        7.91535
H         10.73124        3.42927        9.39081
H         13.74387        5.13005        7.15656
H         10.68646       -0.10360        4.45572
H         11.06460       -1.71889        5.06971
H          9.58990       -1.11351        2.43885
H          8.78303       -1.19715        3.99970
H          9.56095       -2.63605        3.40126
H         14.90273       -3.89904        1.78563
H         14.69896       -5.59457        1.70941
H         14.72498       -3.87148        4.24592
H         15.88188       -5.12377        3.78252
H         14.23652       -5.57184        4.27752
H         15.69763       -8.79386        3.27247
H         13.44933      -11.56244        0.42595
H          6.71628       -7.39051        0.94117
H          4.19345       -7.77609        1.01829
H          5.37097       -6.04751        2.24830
H          3.87028       -6.47045        3.04203
H          4.29776       -4.09415        1.38929
H          4.33775       -4.13389        3.01848
H          2.03706       -7.57962        1.82832
H          1.92444       -7.56099        0.08069
H          1.93153       -5.08195        1.64336
H          0.54818       -5.96524        1.49189
H          1.71454       -5.65484       -1.26914
