73

C          1.57943        2.98467       -5.79550
S          2.36180        2.72742       -7.29799
C          2.41465        1.03520       -7.05171
C          3.11307        0.14683       -7.95445
O          2.86870       -1.03566       -8.12151
O          4.19110        0.74288       -8.53047
C          1.74366        0.67487       -5.89638
C          1.44417        1.80535       -5.08998
O          1.15457        1.66126       -3.76759
N          1.22859        2.84166       -3.03488
C          2.33059        3.62238       -2.84214
S          2.04017        5.15392       -2.08674
C          3.55075        5.73076       -2.55862
N          3.84931        7.11944       -2.41594
O          4.39160        7.66039       -3.38843
O          3.55564        7.66473       -1.34566
C          4.35669        4.76818       -3.11110
C          3.67770        3.50709       -3.20228
C          4.34106        2.34848       -3.74069
C          4.10613        1.08704       -3.35080
C          4.64011       -0.09386       -4.00403
C          4.22258       -1.34808       -3.76405
C          4.62430       -2.50421       -4.53016
C          3.88443       -3.58901       -4.27635
C          2.82780       -3.36732       -3.30161
S          3.02885       -1.79045       -2.56163
C          1.77168       -4.17124       -3.08413
C          1.48952       -5.38076       -3.82668
C          0.22623       -5.79989       -3.70180
C         -0.55725       -5.02364       -2.77014
S          0.43125       -3.80226       -1.99787
C         -1.86939       -5.12872       -2.51457
C         -2.81714       -5.98526       -3.19309
C         -2.78864       -7.32481       -3.34395
C         -1.75856       -8.24761       -2.74297
C         -3.87084       -8.00999       -4.14088
N         -3.27321       -8.60248       -5.31935
C         -3.07009       -9.93811       -5.57765
C         -3.42805      -10.98885       -4.82871
C         -3.20905      -12.31947       -5.26484
S         -4.52420      -13.19938       -5.93563
C         -3.59225      -14.62093       -6.12121
C         -4.15744      -15.84301       -6.66375
O         -3.51573      -16.83993       -6.96184
O         -5.50900      -15.79774       -6.79068
C         -2.29086      -14.42641       -5.69785
C         -2.08579      -13.11584       -5.19232
O         -0.93150      -12.66886       -4.66174
H          1.37413        3.99360       -5.46821
H          4.29093        1.66675       -8.23088
H          1.65220       -0.35188       -5.56299
H          0.38442        3.02771       -2.49831
H          5.37089        4.95424       -3.44647
H          5.07293        2.52730       -4.52601
H          3.38462        0.92574       -2.55262
H          5.35430        0.07315       -4.80803
H          5.40635       -2.47650       -5.27707
H          4.02171       -4.52923       -4.79513
H          2.19836       -5.86024       -4.48463
H         -0.16712       -6.63632       -4.25747
H         -2.32727       -4.43084       -1.81347
H         -3.65453       -5.42735       -3.61485
H         -1.15945       -7.76596       -1.96517
H         -1.07754       -8.61849       -3.51671
H         -2.24150       -9.11248       -2.27780
H         -4.63517       -7.29758       -4.47139
H         -4.39080       -8.74056       -3.51276
H         -2.79992       -7.95309       -5.94217
H         -2.56503      -10.09289       -6.53019
H         -3.92813      -10.85708       -3.87687
H         -5.87079      -14.94499       -6.48156
H         -1.54335      -15.21054       -5.73186
H         -0.26179      -13.37397       -4.65253
