91

C          1.98663       -3.43081        0.36941
S          0.87956       -3.74805       -0.88381
C          1.79147       -4.27939        1.42468
C          2.58557       -4.21778        2.56852
C          2.22726       -5.17671        3.54633
O          2.93073       -5.25449        4.72975
C          3.52746       -4.05330        5.20611
C          1.15436       -6.12610        3.34607
O          0.72363       -7.05075        4.28147
C          1.71265       -7.64606        5.11188
C          0.34649       -6.16197        2.17406
C          0.71391       -5.20657        1.21351
C          0.10656       -5.06227       -0.03110
C         -0.94915       -5.82211       -0.63444
C         -1.51056       -5.52824       -1.81953
C         -2.51022       -6.36952       -2.37936
O         -2.68906       -7.68903       -2.02303
C         -3.69433       -8.25782       -2.77976
C         -4.17928       -7.26017       -3.61020
C         -3.44850       -6.09099       -3.35475
O         -3.62718       -4.89031       -3.93458
O         -5.18920       -7.36726       -4.49509
C         -4.08052       -9.62086       -2.65006
C         -3.85138      -10.27622       -1.50241
C         -4.22822      -11.65693       -1.28795
C         -3.94917      -12.29723       -0.14288
C         -4.29708      -13.65794        0.12679
S         -4.60641      -14.05444        1.78500
C         -4.89711      -15.73160        1.48949
C         -4.78151      -15.98455        0.13289
C         -4.41344      -14.80350       -0.64353
C         -4.15319      -14.85130       -2.02411
C         -4.33487      -16.13167       -2.57658
F         -4.12310      -16.27744       -3.89469
C         -4.70896      -17.27332       -1.82539
F         -4.84631      -18.44500       -2.46683
C         -4.92639      -17.26065       -0.43846
C         -5.16489      -16.54360        2.63845
C         -6.01635      -17.57659        2.60163
C         -6.34930      -18.40817        3.74464
C         -7.43942      -19.18987        3.81434
C         -7.85193      -19.94559        4.97229
C         -9.10524      -20.42321        4.87807
C         -9.76727      -20.09541        3.62535
S         -8.62022      -19.32846        2.53645
C        -11.06216      -20.27928        3.30576
C        -12.09505      -20.83664        4.15577
C        -13.32202      -20.80198        3.61461
C        -13.36192      -20.22387        2.28798
S        -11.75840      -19.79286        1.75563
C        -14.48656      -20.03894        1.57952
C        -14.50506      -19.47028        0.28576
S        -14.36195      -20.36743       -1.18882
C        -14.50669      -18.94931       -2.19545
C        -14.66969      -17.88791       -1.38538
C        -14.67512      -18.16722       -0.03345
O        -14.84433      -17.11959        0.81882
C        -14.94697      -16.09738       -0.10874
N        -15.14022      -14.78659        0.43780
O        -15.25647      -13.86434       -0.38165
O        -15.18332      -14.67076        1.66865
C        -14.85536      -16.49698       -1.44899
H          2.71638       -2.64275        0.26025
H          3.39602       -3.51438        2.66627
H          4.32294       -3.69872        4.54411
H          3.99581       -4.27391        6.16985
H          2.76988       -3.27869        5.36552
H          1.27229       -8.54701        5.55147
H          1.97405       -6.99252        5.94804
H          2.59532       -7.95338        4.54176
H         -0.46191       -6.87346        2.06889
H         -1.30433       -6.69528       -0.09159
H         -1.23065       -4.66056       -2.40743
H         -4.39059       -4.95673       -4.53823
H         -5.58316       -8.25561       -4.45563
H         -4.55971      -10.11114       -3.49027
H         -3.36850       -9.75973       -0.67241
H         -4.76617      -12.14422       -2.09449
H         -3.45698      -11.74715        0.65889
H         -3.82042      -14.03344       -2.64535
H         -5.16235      -18.17825        0.08040
H         -4.70658      -16.25858        3.58314
H         -6.54531      -17.79891        1.68001
H         -5.68365      -18.34497        4.60282
H         -7.22060      -20.07194        5.84133
H         -9.58321      -20.98039        5.67121
H        -11.89894      -21.22431        5.14484
H        -14.20965      -21.16028        4.11822
H        -15.44523      -20.32745        2.00211
H        -14.46465      -19.01964       -3.27352
H        -14.91861      -15.85527       -2.31577
