95

C         -4.89812       -7.65532       -3.30943
S         -4.35770       -7.42966       -1.69370
C         -3.47294       -5.99709       -2.08608
C         -3.58352       -5.73500       -3.43630
C         -4.40042       -6.68631       -4.14082
N         -4.65240       -6.64666       -5.47887
C         -4.02043       -5.58260       -6.06810
O         -4.20436       -5.39611       -7.43189
C         -4.42754       -6.62837       -8.12300
C         -4.61213       -6.33921       -9.60344
C         -3.20682       -4.64864       -5.37959
O         -2.62868       -3.60476       -6.08305
C         -1.41097       -3.13869       -5.48472
C         -1.21134       -1.66932       -5.80387
N         -2.96621       -4.69412       -4.04660
C         -2.75948       -5.24413       -1.05465
N         -2.61711       -3.92447       -1.25023
C         -1.93934       -3.24740       -0.31086
C         -1.41360       -3.83346        0.81580
C         -1.62333       -5.18963        0.94317
N         -2.28806       -5.91234        0.01170
C         -1.11018       -5.91393        2.12373
C         -1.34490       -7.22126        2.29175
N         -0.95370       -8.07959        3.29085
C         -1.17460       -9.42801        3.36009
S         -1.32410      -10.15829        4.92566
C         -1.61696      -11.67908        4.25694
N         -1.89252      -12.79189        5.10359
O         -2.94986      -13.39790        4.88800
O         -1.03716      -13.08621        5.94727
C         -1.56416      -11.70207        2.89016
C         -1.26875      -10.40241        2.36298
C         -1.08478      -10.16530        0.96205
C         -0.57327      -11.03517        0.08063
C         -0.45763      -10.68893       -1.31855
C         -0.37577      -11.55548       -2.33430
C         -0.25897      -11.14978       -3.71097
C         -0.11638      -12.17860       -4.55394
C         -0.10977      -13.47463       -3.90040
S         -0.44838      -13.29210       -2.18629
C          0.18137      -14.65056       -4.48588
C          0.65200      -14.79877       -5.85092
C          1.01155      -16.05435       -6.16249
C          0.77368      -17.00415       -5.09906
S          0.11944      -16.21274       -3.68527
C          0.97487      -18.32999       -5.12876
C          1.57391      -19.03906       -6.25126
C          1.34379      -20.31225       -6.59524
C          1.97093      -21.13308       -7.66365
C          2.57996      -20.68539       -8.79454
C          3.09065      -21.56278       -9.79353
N          3.51809      -22.26582      -10.60997
C          2.69566      -19.30363       -9.10906
N          2.78973      -18.17757       -9.36806
C          1.64701      -22.55783       -7.33800
C          0.68610      -22.57118       -6.32416
C          0.40393      -21.21460       -5.85227
O         -0.42571      -20.93346       -5.01189
C          0.11606      -23.72273       -5.79710
C          0.55688      -24.96139       -6.30551
C          1.54905      -24.96546       -7.29843
C          2.11220      -23.77279       -7.82459
S          1.95761      -26.58158       -7.75597
C          0.83680      -27.23921       -6.67915
C          0.15571      -26.29565       -5.95888
Br         0.55600      -29.08094       -6.48787
H         -5.54161       -8.48471       -3.56607
H         -5.32828       -7.13443       -7.75697
H         -3.55622       -7.28205       -7.99350
H         -5.42346       -5.62171       -9.76391
H         -4.84321       -7.25936      -10.14932
H         -3.70434       -5.90009      -10.02938
H         -0.58297       -3.72841       -5.89372
H         -1.38176       -3.22198       -4.39327
H         -1.13948       -1.50280       -6.88185
H         -0.29690       -1.30231       -5.32634
H         -2.05618       -1.07938       -5.43356
H         -1.83098       -2.18364       -0.49939
H         -0.87565       -3.25007        1.54992
H         -0.52452       -5.35511        2.84431
H         -1.97761       -7.70476        1.55819
H         -0.62807       -7.61470        4.13518
H         -1.71306      -12.59809        2.29733
H         -1.40314       -9.21541        0.55422
H         -0.23285      -12.01665        0.39858
H         -0.44451       -9.62262       -1.54398
H         -0.28593      -10.11416       -4.02072
H         -0.02817      -12.05021       -5.62193
H          0.77230      -13.98120       -6.53224
H          1.41500      -16.32566       -7.12830
H          0.67959      -18.91756       -4.26685
H          2.31468      -18.45166       -6.76731
H         -0.63299      -23.66163       -5.01078
H          2.88946      -23.85605       -8.57498
H         -0.59751      -26.52819       -5.21537
