86

C          1.79335        4.28548       -4.70586
S          0.54677        5.30587       -5.25866
C          0.11920        5.76555       -3.65583
C          0.96121        5.17507       -2.72174
C          1.88477        4.26523       -3.33080
O          2.78380        3.52206       -2.62875
C          3.13847        2.29117       -3.26064
C          0.87139        5.44521       -1.31387
N          0.77756        5.70286       -0.18204
C         -0.95159        6.68229       -3.49342
C         -2.21433        6.24563       -3.35194
C         -3.35988        7.14750       -3.23365
N         -4.57099        6.58324       -3.11392
C         -5.60752        7.43520       -3.00575
C         -5.47501        8.80514       -3.02267
C         -4.18648        9.28086       -3.13468
N         -3.12164        8.46669       -3.24883
C         -3.90655       10.72127       -3.13199
C         -2.74152       11.22475       -2.69444
N         -2.37469       12.54667       -2.68319
C         -1.23169       13.13619       -2.23751
S         -0.85583       14.68156       -2.91175
C          0.56323       14.82114       -2.00508
N          1.41193       15.97255       -2.16405
O          2.39790       16.03723       -1.41776
O          1.11614       16.80593       -3.03106
C          0.75924       13.75708       -1.15506
C         -0.26567       12.76230       -1.30740
C         -0.26148       11.54355       -0.54910
C         -0.86504       11.39971        0.64125
C         -0.86118       10.16647        1.41899
C         -1.31601       10.04303        2.67747
C         -1.27734        8.84003        3.48156
C         -1.55113        9.05191        4.78108
C         -1.81094       10.44677        5.09617
S         -1.96620       11.36690        3.60145
C         -1.87965       11.02724        6.30926
C         -1.75575       10.39452        7.60881
C         -1.83294       11.24869        8.64339
C         -2.01726       12.62378        8.24176
S         -2.07732       12.76859        6.50735
C         -2.19790       13.72078        8.98799
C         -2.26276       13.80298       10.43028
C         -2.91024       14.75770       11.12089
C         -2.99830       14.99088       12.58267
C         -2.85072       14.07255       13.57012
C         -3.05758       14.38179       14.94684
N         -3.23347       14.62493       16.06811
C         -2.53425       12.70664       13.31465
N         -2.27220       11.59474       13.10189
C         -3.45792       16.40638       12.75662
C         -3.87940       16.88904       11.51743
C         -3.63216       15.90545       10.46295
O         -3.94278       16.06343        9.30105
C         -4.35782       18.17451       11.28945
C         -4.33478       19.07656       12.37159
C         -3.89719       18.61504       13.62262
C         -3.47455       17.27601       13.84181
S         -3.92257       19.88919       14.79122
C         -4.42617       21.02011       13.64353
C         -4.64680       20.47811       12.40653
Br        -4.64106       22.84191       14.02165
H          2.39049        3.75628       -5.43382
H          3.81046        1.74280       -2.59463
H          3.67939        2.45947       -4.19788
H          2.24972        1.67324       -3.43316
H         -0.72171        7.74487       -3.52857
H         -2.46144        5.18921       -3.33366
H         -6.58152        6.96717       -2.89169
H         -6.33316        9.45525       -2.92141
H         -4.69623       11.37376       -3.48796
H         -1.97367       10.55207       -2.32139
H         -2.99834       13.14362       -3.22222
H          1.59431       13.68323       -0.46621
H          0.29410       10.71096       -0.97308
H         -1.39026       12.25754        1.05877
H         -0.42789        9.29252        0.93554
H         -1.02350        7.87225        3.06865
H         -1.53968        8.26989        5.52739
H         -1.62068        9.32932        7.73314
H         -1.77105       10.94161        9.67829
H         -2.33333       14.65949        8.44980
H         -1.70113       13.02395       10.93367
H         -4.66710       18.48405       10.29427
H         -3.12472       16.99958       14.82986
H         -4.97255       21.04812       11.54419
