126

C          5.36772       -0.10973        8.97617
S          6.96034        0.39913        8.66643
C          6.49918        1.32578        7.26773
C          5.11676        1.27023        7.10372
C          4.47838        0.43003        8.08226
C          3.12913        0.12682        8.20355
S          2.01371        0.85748        7.02512
C          3.07069        1.82407        5.96287
C          4.46234        1.95457        6.06320
C          7.50044        2.02693        6.52219
C          8.75373        1.56037        6.38149
C          9.75793        2.28551        5.61152
C          9.93252        1.98744        4.25608
C         10.88574        2.70522        3.55128
C         11.66824        3.69674        4.17593
C         11.50568        3.98480        5.52001
C         10.53978        3.27577        6.23766
C         12.55825        4.28430        3.20105
C         12.33812        3.67700        1.95089
C         11.25836        2.59579        2.06687
C         10.05164        2.90980        1.13909
C          9.34111        4.23818        1.40201
C         11.83266        1.19523        1.71193
C         12.98824        0.70857        2.58785
C         13.04847        4.06806        0.82346
C         14.01414        5.07893        0.94028
C         14.22958        5.67352        2.20335
C         13.50496        5.28162        3.33593
C         14.81663        5.55865       -0.20227
C         14.81141        5.01427       -1.42778
C         15.61049        5.50555       -2.53354
C         15.98281        4.77225       -3.59364
C         16.65856        5.29026       -4.75858
C         16.75563        4.40130       -5.76014
C         16.17197        3.10599       -5.44916
S         15.70656        3.05688       -3.75149
C         15.88737        2.11352       -6.31320
C         16.05458        2.14289       -7.75500
C         15.32434        1.21229       -8.39020
C         14.55334        0.38181       -7.48934
S         15.05512        0.62899       -5.84304
C         13.53893       -0.40831       -7.86797
C         12.66126       -1.17072       -6.96943
C         12.92613       -2.51958       -6.71535
C         12.02639       -3.24410       -5.94131
C         10.90812       -2.61601       -5.35089
C         10.65808       -1.27163       -5.57021
C         11.53315       -0.55358       -6.39334
C         10.18086       -3.58120       -4.55716
C         10.81053       -4.83753       -4.66311
C         12.06030       -4.73272       -5.56538
C         13.34989       -5.10626       -4.79152
C         13.68124       -4.21321       -3.59405
C         11.82349       -5.63861       -6.80975
C         12.95202       -5.71403       -7.83342
C         10.28831       -5.95732       -4.01934
C          9.12523       -5.81906       -3.24532
C          8.53891       -4.54400       -3.10352
C          9.05458       -3.42520       -3.76781
C          8.57599       -7.00989       -2.57287
C          7.26649       -7.18725       -2.32551
C          6.72632       -8.35408       -1.69153
S          7.43811       -9.90537       -1.94820
C          6.27181      -10.73502       -0.99977
C          5.34328       -9.84740       -0.48545
C          5.60154       -8.48272       -0.88257
C          4.85264       -7.36004       -0.51944
S          3.42271       -7.59695        0.51591
C          3.38720       -9.34936        0.82299
C          4.29204      -10.29582        0.33269
C          6.43049      -12.14075       -0.84658
C          5.87938      -12.99382       -1.71870
H          5.17445       -0.77278        9.80772
H          2.72399       -0.52569        8.96861
H          2.55758        2.35311        5.16254
H          4.98516        2.57204        5.33899
H          7.21628        2.95677        6.02914
H          9.09498        0.62605        6.81822
H          9.34112        1.21533        3.77224
H         12.10533        4.74350        6.01109
H         10.39981        3.49220        7.29443
H          9.30486        2.10924        1.22130
H         10.38565        2.90880        0.09297
H          8.87928        4.25828        2.39371
H          8.54268        4.38415        0.66705
H         10.02278        5.08973        1.31983
H         12.17846        1.19787        0.66972
H         11.03451        0.44309        1.76675
H         13.79385        1.44492        2.65718
H         13.41586       -0.20664        2.16517
H         12.64678        0.47218        3.60047
H         12.83772        3.58067       -0.12172
H         14.97585        6.45690        2.31866
H         13.69021        5.75383        4.29400
H         15.47997        6.39475        0.00402
H         14.17282        4.16475       -1.65379
H         15.86458        6.56220       -2.50311
H         17.00641        6.31153       -4.82319
H         17.19546        4.63585       -6.71748
H         16.64616        2.88527       -8.27155
H         15.26397        1.11916       -9.46585
H         13.26289       -0.47667       -8.91585
H         13.81901       -2.98693       -7.11602
H          9.80006       -0.77951       -5.12501
H         11.33373        0.49903       -6.58149
H         14.21618       -5.06539       -5.46193
H         13.27869       -6.14300       -4.43860
H         13.95702       -3.20336       -3.91471
H         14.53839       -4.62479       -3.05151
H         12.84779       -4.13782       -2.89035
H         10.91524       -5.31318       -7.33663
H         11.62486       -6.66672       -6.47923
H         13.16273       -4.74429       -8.28746
H         12.66498       -6.38618       -8.64911
H         13.87300       -6.10839       -7.39631
H         10.76758       -6.92593       -4.13298
H          7.66882       -4.40434       -2.46678
H          8.57610       -2.45878       -3.65236
H          9.30916       -7.76661       -2.30358
H          6.55542       -6.41801       -2.61216
H          5.08595       -6.34475       -0.81554
H          2.57119       -9.69322        1.45528
H          4.15924      -11.34223        0.59232
H          7.04449      -12.50298       -0.02713
H          5.27968      -12.65609       -2.55876
H          6.04255      -14.06207       -1.61789
