104

C        -10.12260       -6.12053        6.43707
S         -8.55912       -6.78696        6.57906
C         -9.02002       -8.26171        5.79265
C        -10.34252       -8.21670        5.39260
C        -10.98590       -6.98376        5.80837
C        -12.33827       -6.67295        5.61042
C        -13.05097       -5.43680        6.05115
C        -12.99625       -7.71413        4.91312
C        -12.36820       -8.92717        4.48326
C        -11.00447       -9.25400        4.69969
C        -10.44603      -10.55685        4.21557
C         -8.04178       -9.28537        5.72444
C         -7.11007       -9.26638        4.76197
C         -6.03004      -10.19889        4.72976
S         -5.52450      -10.71513        3.17973
C         -4.34437      -11.80759        3.78190
C         -4.29303      -11.72435        5.17010
C         -5.25255      -10.79056        5.72407
C         -5.42622      -10.54068        7.13120
C         -5.60711       -9.34409        7.71155
O         -3.42896      -12.54522        5.83453
C         -2.71078      -11.93059        6.89619
C         -3.55583      -12.63180        2.90475
C         -3.77673      -12.71401        1.58389
C         -3.05673      -13.57107        0.66446
C         -3.67776      -14.41353       -0.17497
C         -3.06898      -15.09020       -1.29518
C         -3.97128      -15.54687       -2.18065
C         -5.34413      -15.24919       -1.80060
S         -5.39118      -14.75188       -0.11677
C         -6.40636      -15.15157       -2.62002
C         -6.39180      -15.30644       -4.06142
C         -7.41735      -14.68400       -4.66442
C         -8.31171      -14.02846       -3.73154
S         -7.97877      -14.54070       -2.10243
C         -9.21173      -13.09911       -4.08883
C        -10.02075      -12.36746       -3.16730
S        -11.59162      -12.94989       -2.81720
C        -12.03673      -11.52232       -1.98278
C        -10.96837      -10.62810       -1.89631
C         -9.77366      -11.15546       -2.52576
C         -8.49339      -10.51903       -2.66622
C         -7.48075      -10.61624       -1.79256
O        -11.22955       -9.42248       -1.31378
C        -10.18723       -8.46779       -1.24310
C        -13.39538      -11.37819       -1.57610
C        -13.83118      -11.84481       -0.39462
C        -15.19498      -11.74318        0.00741
S        -16.22624      -13.09339       -0.30161
C        -17.55163      -12.45412        0.59686
C        -17.20998      -11.23742        1.16574
C        -15.89524      -10.77114        0.71061
C        -15.35847       -9.50011        1.04316
C        -14.09105       -8.87020        0.55507
C        -16.20917       -8.78117        1.90728
C        -17.46462       -9.25252        2.39570
C        -18.04008      -10.50841        2.05412
C        -19.36576      -10.87621        2.64558
C        -18.73244      -13.24849        0.66559
C        -19.71600      -13.10044       -0.22971
H        -10.31483       -5.13414        6.83419
H        -12.85510       -5.24574        7.11166
H        -14.13373       -5.53475        5.92926
H        -12.71137       -4.57694        5.46609
H        -14.05754       -7.60244        4.68725
H        -12.99689       -9.64831        3.95604
H        -11.18351      -11.11667        3.63136
H        -10.14888      -11.18209        5.06316
H         -9.58388      -10.38765        3.56363
H         -8.05883      -10.03625        6.50753
H         -7.17442       -8.53068        3.96203
H         -5.40634      -11.41225        7.78330
H         -5.64377       -8.42237        7.13774
H         -5.76199       -9.26011        8.78223
H         -1.78917      -12.50141        7.04903
H         -3.27491      -11.99769        7.83031
H         -2.43140      -10.89488        6.67633
H         -2.77834      -13.24062        3.35768
H         -4.57789      -12.15024        1.10881
H         -1.99008      -13.38650        0.57265
H         -1.99889      -15.14689       -1.43624
H         -3.70568      -16.02196       -3.11337
H         -5.59584      -15.80061       -4.59870
H         -7.54132      -14.62394       -5.73617
H         -9.31018      -12.82222       -5.13288
H         -8.33819       -9.93809       -3.57252
H         -7.55754      -11.19960       -0.88011
H         -6.53450      -10.11801       -1.98630
H        -10.65329       -7.48736       -1.09437
H         -9.60836       -8.37529       -2.16382
H         -9.54871       -8.66379       -0.37647
H        -14.07299      -10.88249       -2.26451
H        -13.14829      -12.34158        0.29652
H        -14.06696       -8.87481       -0.53865
H        -13.21829       -9.39160        0.95687
H        -14.02598       -7.81976        0.86107
H        -15.90175       -7.78597        2.23908
H        -18.01195       -8.59928        3.07061
H        -19.52511      -10.35047        3.59375
H        -19.42531      -11.94123        2.87889
H        -20.17418      -10.60046        1.96357
H        -18.81495      -13.98463        1.45988
H        -19.66030      -12.37843       -1.04000
H        -20.60870      -13.71627       -0.17243
