87

C          2.77639        1.26451       -2.52993
S          3.41575        0.14067       -3.63245
C          1.47202        0.98757       -2.16475
C          0.68595        1.86024       -1.21647
C         -0.09013        2.99034       -1.90954
N          0.77152        3.93662       -2.61712
C          0.99409       -0.21612       -2.81778
C         -0.40146       -0.77701       -2.67372
C         -1.35066       -0.21776       -3.74123
N         -2.70416       -0.75237       -3.59815
C          1.97969       -0.79729       -3.60971
C          1.91870       -1.98220       -4.39941
C          2.27611       -3.19268       -3.94075
C          2.23228       -4.38890       -4.74796
C          2.80477       -5.44498       -4.16175
C          3.38038       -5.14924       -2.85912
S          2.89508       -3.53655       -2.34760
C          4.24181       -5.92997       -2.18497
C          4.73189       -7.21721       -2.62679
C          5.77361       -7.66942       -1.91833
C          6.20990       -6.76961       -0.87516
S          5.04331       -5.46549       -0.68796
C          7.30890       -6.79049       -0.10196
C          8.37167       -7.72586       -0.14711
S          9.32779       -8.11421        1.24947
C         10.37661       -9.24031        0.39618
C          9.93240       -9.26769       -0.88776
C          8.89372       -8.41083       -1.18517
O          8.49783       -8.35144       -2.49044
C          9.31952       -9.31368       -3.02824
N          9.15089       -9.55416       -4.42850
O          9.92323      -10.37448       -4.94368
O          8.24095       -8.95476       -5.02019
C         10.18987       -9.91228       -2.11846
C         11.41746       -9.88995        1.12443
C         12.61557      -10.25384        0.63816
C         13.62946      -10.91069        1.43497
C         14.74383      -11.21345        0.75330
C         14.69624      -10.83987       -0.64997
S         13.20899       -9.98149       -0.97782
C         15.63141      -11.09410       -1.58390
C         16.92220      -11.69128       -1.33364
C         17.66837      -11.86004       -2.43080
C         17.02790      -11.44438       -3.65954
S         15.44943      -10.75213       -3.30785
C         17.47328      -11.52038       -4.92720
C         18.75969      -12.01685       -5.30605
O         19.68843      -12.42982       -4.38585
C         20.85526      -12.81190       -4.97749
C         20.67087      -12.67266       -6.33904
C         19.34878      -12.16364       -6.56304
C         18.79100      -11.85351       -7.90319
F         17.51267      -11.40384       -7.87587
F         19.52633      -10.90078       -8.53419
F         18.80272      -12.94640       -8.71049
C         21.99713      -13.24682       -4.25498
C         21.98284      -13.29811       -2.91680
H          3.37790        2.10513       -2.21184
H          1.36912        2.29202       -0.47281
H         -0.01741        1.24470       -0.64400
H         -0.67120        3.53663       -1.15849
H         -0.80578        2.57865       -2.62360
H          1.40281        4.38967       -1.96026
H          0.20487        4.66603       -3.04418
H         -0.79037       -0.56085       -1.67246
H         -0.36938       -1.87157       -2.74740
H         -0.97585       -0.44347       -4.74608
H         -1.40720        0.87010       -3.66748
H         -2.69343       -1.75235       -3.79517
H         -3.30318       -0.32910       -4.30628
H          1.57463       -1.86368       -5.42301
H          1.80360       -4.41425       -5.73811
H          2.89041       -6.41325       -4.64349
H          4.32713       -7.75776       -3.47020
H          6.24478       -8.61063       -2.14828
H          7.40586       -6.00823        0.65077
H         10.90827      -10.68088       -2.36025
H         11.22218      -10.06981        2.18096
H         13.49032      -11.14016        2.48302
H         15.58612      -11.71981        1.20202
H         17.27665      -11.94891       -0.34672
H         18.66183      -12.27522       -2.37999
H         16.81996      -11.16715       -5.72132
H         21.40970      -12.89284       -7.09927
H         22.89153      -13.52770       -4.80145
H         21.10855      -13.01995       -2.33576
H         22.85919      -13.61994       -2.36284
