84

C          1.36783       -1.12170       -0.59858
N          1.35405       -2.03894       -1.63903
C          0.05192       -2.41988       -1.93435
C         -0.74817       -1.73121       -1.07141
C          0.05814       -0.94652       -0.25087
S         -0.88780       -0.05252        0.85877
O         -0.68116        1.33510        0.49895
O         -0.58723       -0.61384        2.15452
C         -2.40736       -0.70862        0.18331
C         -2.13138       -1.59833       -0.80494
C         -3.70021       -0.35877        0.72220
C         -4.80633       -0.29520       -0.03102
N         -6.09925       -0.03211        0.36236
C         -7.20398        0.06160       -0.43737
S         -7.11601        0.38723       -2.13821
C         -8.78919        0.31084       -2.31009
N         -9.36300        0.48991       -3.60275
O        -10.21836        1.37687       -3.70992
O         -8.98518       -0.27545       -4.49986
C         -9.45615        0.08194       -1.13469
C         -8.53352       -0.06536       -0.04761
C         -8.95714       -0.40224        1.27943
C         -9.44793        0.48801        2.15536
C        -10.04008        0.10407        3.42702
C        -10.90715        0.84727        4.13523
C        -11.58569        0.40436        5.33115
C        -12.53565        1.25275        5.75968
C        -12.66210        2.45590        4.94876
S        -11.45189        2.43632        3.66806
C        -13.55425        3.45555        5.09869
C        -14.60834        3.53752        6.09318
C        -15.35633        4.64696        6.00074
C        -14.96650        5.52289        4.91659
S        -13.60171        4.88873        4.05197
C        -15.58847        6.66899        4.60292
N        -15.35503        7.57075        3.57273
C        -15.97862        8.77134        3.34482
S        -17.20600        9.37658        4.42205
C        -17.39197       10.80835        3.56168
N        -18.33757       11.80184        3.99162
O        -18.35509       12.85750        3.34176
O        -19.05791       11.54999        4.96496
C        -16.57537       10.87544        2.46197
C        -15.77945        9.68696        2.30455
C        -14.94794        9.47690        1.14691
C        -14.33191       10.46665        0.46229
C        -13.69328       10.26725       -0.78491
N        -13.05949       11.35846       -1.38926
C        -12.52174       11.01094       -2.62269
C        -12.82305        9.69640       -2.80536
C        -13.52560        9.24732       -1.68763
S        -13.93226        7.59732       -1.86466
O        -15.37675        7.58131       -1.96439
O        -13.18696        6.92807       -0.81805
C        -13.13442        7.49209       -3.45559
C        -12.61708        8.70125       -3.79267
C        -13.07743        6.30130       -4.26737
C        -13.46962        5.07653       -3.89605
H          2.29132       -0.69947       -0.22812
H          2.17759       -2.37919       -2.12143
H         -0.15223       -3.12830       -2.72603
H         -2.87825       -2.16119       -1.34974
H         -3.73781       -0.13217        1.78356
H         -4.72279       -0.49500       -1.09742
H         -6.23276        0.01325        1.37077
H        -10.53404       -0.00717       -1.05721
H         -8.96015       -1.46211        1.52534
H         -9.47066        1.54216        1.88163
H         -9.80133       -0.89643        3.78291
H        -11.36706       -0.54162        5.80883
H        -13.15196        1.05391        6.62499
H        -14.79266        2.76749        6.83008
H        -16.19330        4.86479        6.65117
H        -16.42329        6.95469        5.23733
H        -14.59534        7.27865        2.95494
H        -16.57972       11.71417        1.77479
H        -14.90878        8.45561        0.77140
H        -14.36460       11.48013        0.85805
H        -13.00028       12.28620       -0.98954
H        -11.99140       11.74013       -3.22167
H        -12.09176        8.90221       -4.71727
H        -12.66518        6.42205       -5.26787
H        -13.87666        4.85121       -2.91461
H        -13.37426        4.23935       -4.58270
