104

C         17.30378        9.61065        2.95874
C         17.60884       10.87331        3.41412
S         16.46320       12.01740        2.89629
C         15.56018       10.83331        2.05409
C         16.10587        9.56456        2.15152
C         15.45581        8.49199        1.46426
C         16.04940        7.08864        1.56599
C         15.52538        6.26769        2.73990
C         14.26603        8.76948        0.66260
C         13.67497        7.66825       -0.20895
C         12.65635        6.78844        0.49426
C         13.69193       10.09682        0.64137
C         12.49797       10.69155        0.03888
C         12.40076       12.05010        0.26177
S         13.67630       12.63869        1.20656
C         14.38308       11.08961        1.33220
C         11.43523       10.04819       -0.68061
C         10.31798        9.61940       -0.07017
N          9.19916        9.02191       -0.61520
C          8.12588        8.49578        0.06014
S          7.67138        9.03461        1.64914
C          6.39003        7.95019        1.72712
N          5.57013        7.90825        2.89173
O          4.35930        8.09433        2.71768
O          6.12586        7.64061        3.96384
C          6.23939        7.18810        0.59975
C          7.24686        7.49576       -0.37213
C          7.35944        6.85673       -1.65952
C          6.57423        5.86118       -2.11282
C          6.66102        5.33653       -3.44679
C          6.29705        4.06103       -3.91273
C          5.98037        3.00792       -2.99195
N          5.78107        2.20935       -2.17937
C          6.29349        4.04167       -5.32414
C          6.76614        5.18339       -5.87242
S          7.17243        6.35685       -4.76996
S          6.80420        5.20443       -7.55471
C          6.09187        3.68007       -7.55311
C          5.88097        3.15713       -6.32251
C          5.25231        1.89977       -6.36566
C          4.86890        1.04375       -5.28557
N          4.54676        0.29467       -4.46142
C          4.96297        1.54192       -7.68397
S          5.57330        2.71770       -8.81211
C          4.28349        0.39394       -8.19131
C          2.96292        0.37164       -8.42902
C          2.26099       -0.75619       -8.99949
C          1.04540       -0.44006       -9.47272
C          0.73620        0.97454       -9.33556
S          1.86683        1.71236       -8.19842
C         -0.11288        1.68003      -10.10619
C         -0.89699        1.16333      -11.21500
C         -1.19697        2.10340      -12.12505
C         -0.68123        3.41096      -11.77403
S         -0.19073        3.44370      -10.10289
C         -0.47907        4.39636      -12.65848
C          0.17146        5.66504      -12.42437
C          1.30160        6.03238      -13.07688
C          1.58673        7.38953      -12.68464
C          2.55078        8.23337      -13.09444
C          2.49382        9.57618      -12.55436
C          3.25534       10.65763      -12.80564
C          2.76357       11.80809      -12.02668
C          1.68103       11.41897      -11.31282
C          1.47036       10.01886      -11.59463
C          0.52641        9.16377      -11.15959
C          0.56591        7.82564      -11.72183
C         -0.26145        6.77867      -11.56293
C          3.23446       13.17286      -12.06317
C          4.49212       13.53074      -12.35104
H         17.92647        8.75444        3.18410
H         18.44842       11.17922        4.02342
H         17.13738        7.17226        1.68201
H         15.92949        6.52895        0.63640
H         15.72937        6.75182        3.69951
H         16.00830        5.28363        2.74904
H         14.44906        6.10096        2.68797
H         14.46590        7.05297       -0.64918
H         13.20393        8.12493       -1.08486
H         13.14032        6.05478        1.13901
H         12.08176        6.21849       -0.24267
H         11.96060        7.36901        1.10580
H         11.62167       12.72608       -0.06555
H         11.53169        9.98738       -1.76115
H         10.26532        9.72604        1.01174
H          9.27709        8.86423       -1.61592
H          5.45862        6.44441        0.49817
H          8.14666        7.22251       -2.30893
H          5.79907        5.43716       -1.48008
H          4.89058       -0.47783       -8.41684
H          2.70098       -1.74113       -9.07270
H          0.40046       -1.14617       -9.97614
H         -1.14323        0.11813      -11.33791
H         -1.70519        1.90439      -13.05871
H         -0.74152        4.22352      -13.70053
H          1.86734        5.45510      -13.78934
H          3.31113        7.96100      -13.81399
H          4.08388       10.70955      -13.49436
H          1.06542       12.02569      -10.66944
H         -0.25216        9.44541      -10.46351
H         -1.14092        6.74223      -10.93912
H          2.50625       13.94931      -11.83684
H          5.26666       12.80129      -12.56401
H          4.77892       14.57756      -12.36203
