91

C          8.33476        1.98897       -0.99082
S          7.69623        3.45534       -0.44017
C          6.49428        2.68506        0.55414
C          6.58852        1.29446        0.41699
C          7.63514        0.90484       -0.51831
C          7.90125       -0.50820       -0.95753
C          7.12713       -1.55630       -0.16166
C          5.72938       -1.07104        0.23493
C          5.76410        0.21721        1.08785
N          6.22610       -0.07447        2.51913
O          6.45712       -1.24380        2.84085
O          6.26858        0.89276        3.29843
C          5.60099        3.54455        1.34353
C          4.23290        3.47166        1.59627
C          3.24149        2.44547        1.16330
C          3.77257        4.60452        2.35761
C          4.74196        5.54010        2.64817
S          6.26026        4.96175        2.11228
C          4.64314        6.81297        3.28907
C          3.46960        7.28456        3.74336
C          3.37748        8.56196        4.36507
S          3.01922        9.91144        3.36575
C          3.06095       11.07090        4.64775
C          3.27700       10.39989        5.84944
C          3.44048        8.94891        5.68999
C          3.64457        8.05218        6.77172
C          3.85067        6.56635        6.73688
C          3.65290        8.72693        8.01986
C          3.50974       10.13220        8.17887
C          3.33717       11.02787        7.10606
C          2.81565       12.48666        4.33745
S          1.83993       13.45287        5.38011
C          2.02958       14.86681        4.44828
C          2.71056       14.60146        3.27496
C          3.19152       13.23501        3.21506
C          3.96625       12.74486        2.01425
C          4.44506       13.85661        1.06478
C          5.78267       14.41583        1.52399
F          5.72906       14.97133        2.74842
F          6.72567       13.44946        1.54770
F          6.20928       15.36915        0.66369
C          3.39812       14.97993        0.86221
C          2.19270       14.49994        0.06565
F          2.59148       13.97546       -1.11580
F          1.47389       13.55951        0.70400
F          1.36517       15.53084       -0.21642
C          2.95808       15.61192        2.18773
C          1.45784       16.09246        4.89459
C          2.20319       16.96745        5.58717
C          1.68332       18.22296        6.02566
S          2.33820       18.96442        7.43401
C          1.29323       20.30860        7.31443
C          0.44920       20.23300        6.22284
C         -0.55488       21.24981        5.92241
O         -0.72259       22.25768        6.59766
O         -1.31629       20.89976        4.84619
C         -2.50427       21.66908        4.67258
C          0.69216       19.02207        5.48495
H          9.17551        1.98600       -1.67266
H          8.97389       -0.72821       -0.89614
H          7.62028       -0.59017       -2.01532
H          7.70003       -1.82529        0.73199
H          7.04372       -2.47352       -0.75612
H          5.18551       -1.87386        0.74984
H          5.16424       -0.86716       -0.68537
H          4.73394        0.51947        1.21606
H          3.18056        1.65160        1.91516
H          3.48288        2.02834        0.18304
H          2.23699        2.87810        1.09363
H          2.73312        4.73212        2.63356
H          5.54689        7.41218        3.39499
H          2.54529        6.72245        3.66247
H          2.99293        6.06492        6.27918
H          3.96638        6.15432        7.74578
H          4.76371        6.32205        6.18635
H          3.78583        8.13749        8.92982
H          3.54100       10.53698        9.19103
H          3.25821       12.08897        7.29240
H          3.30550       12.08559        1.43764
H          4.82054       12.14022        2.33967
H          4.63962       13.39078        0.08882
H          3.85358       15.77423        0.25511
H          2.06111       16.22416        2.03133
H          3.73844       16.30092        2.53493
H          0.41769       16.28122        4.64963
H          3.23286       16.72523        5.84594
H          1.33860       21.09539        8.05707
H         -2.86397       21.50899        3.65235
H         -2.33708       22.74097        4.81629
H         -3.26383       21.30072        5.36798
H          0.14512       18.76058        4.58579
