82

C         -5.23582        6.41002        4.75558
C         -5.06790        5.18401        4.28185
C         -3.82543        4.36323        4.35039
C         -2.63595        4.95623        4.96100
C         -2.64407        6.18979        5.48062
S         -3.98181        7.29052        5.56310
N         -3.92429        3.15723        3.83363
C         -5.26889        3.13837        3.38716
C         -5.92912        4.30527        3.63071
S         -7.49604        4.30241        3.06802
C         -7.32137        2.64887        2.49476
C         -6.03751        2.16241        2.74868
C         -8.43674        2.03079        1.86067
C         -8.63993        0.70461        1.91929
C         -9.79023        0.05103        1.29653
N        -10.20515       -1.09598        1.86166
C        -11.26717       -1.68713        1.28534
C        -11.89413       -1.19541        0.16575
C        -11.37833       -0.02202       -0.33985
N        -10.34250        0.62837        0.21684
C        -11.95631        0.58802       -1.53576
C        -11.50417        0.30261       -2.76576
C        -12.06543        0.89579       -3.96344
C        -11.38199        1.58488       -4.89037
C        -11.96177        2.13152       -6.09456
C        -11.07994        2.76767       -6.88025
C         -9.72596        2.79395       -6.34898
S         -9.68204        1.95918       -4.79174
C         -8.64272        3.35327       -6.92506
C         -8.58943        4.02528       -8.21182
C         -7.37116        4.47884       -8.54350
C         -6.36150        4.21493       -7.54336
S         -7.04082        3.35749       -6.18426
C         -5.07620        4.57892       -7.65027
C         -4.06087        4.30395       -6.64429
N         -3.85522        5.22869       -5.69372
C         -2.93788        4.91404       -4.76514
C         -2.21786        3.74067       -4.76919
C         -2.48249        2.87937       -5.81402
N         -3.39139        3.15086       -6.76869
C         -1.74045        1.61967       -5.94554
C         -1.92825        0.75834       -6.96038
C         -1.17449       -0.47001       -7.13349
C          0.14890       -0.51285       -7.30116
C          0.98161       -1.74912       -7.41377
C          0.32808       -3.05672       -7.37033
C         -0.99701       -3.18284       -7.25755
S         -2.16106       -1.91369       -7.13974
N          2.28013       -1.55053       -7.53396
C          2.36024       -0.13925       -7.52530
C          1.14487        0.46701       -7.40105
S          1.25551        2.13131       -7.47861
C          2.99972        2.05997       -7.60167
C          3.44287        0.73787       -7.63372
C          3.72130        3.28536       -7.67123
C          4.97780        3.39192       -7.22164
H         -6.19665        6.90683        4.65806
H         -1.74190        4.34469        4.95874
H         -1.71623        6.55937        5.90995
H         -5.68932        1.17702        2.47093
H         -9.15509        2.66553        1.34449
H         -7.98224        0.03869        2.46696
H        -11.60961       -2.59942        1.76532
H        -12.73799       -1.70001       -0.28341
H        -12.74234        1.31449       -1.36234
H        -10.66823       -0.38247       -2.90441
H        -13.13204        0.73151       -4.10091
H        -13.01122        2.02506       -6.33334
H        -11.35514        3.22479       -7.81994
H         -9.45026        4.14445       -8.85406
H         -7.14945        4.99540       -9.46760
H         -4.70153        5.09438       -8.52484
H         -2.78957        5.65728       -3.98585
H         -1.48884        3.52505       -4.00081
H         -0.98770        1.42107       -5.18806
H         -2.70254        0.94577       -7.70374
H          0.97709       -3.92143       -7.43667
H         -1.40828       -4.18929       -7.23871
H          4.47682        0.44129       -7.74292
H          3.22627        4.16381       -8.07965
H          5.51309        2.56260       -6.77071
H          5.49879        4.34281       -7.27721
