112

C         -7.30404        1.68928        2.92512
S         -7.07750        3.36749        2.77316
C         -5.56647        3.17101        1.95474
C         -5.27251        1.81992        1.75421
C         -6.25481        0.98977        2.38934
O         -6.23688       -0.36294        2.45853
C         -5.01308       -0.83261        3.02507
C         -3.90091       -1.01176        1.99208
C         -4.06597       -0.19805        0.71037
C         -4.09385        1.30444        0.96601
C         -4.87779        4.36151        1.56594
C         -3.53723        4.43662        1.54513
C         -2.80072        5.58814        1.13058
S         -3.48209        6.82013        0.15598
C         -2.03238        7.73248        0.10851
C         -1.02840        7.13626        0.86368
C         -1.46185        5.85895        1.36173
O         -0.70805        4.97655        2.07283
C          0.62452        4.86001        1.57814
C          1.56822        5.84399        2.26063
C          1.01311        7.26138        2.39287
C          0.32529        7.75458        1.12559
C         -2.05597        8.94561       -0.63886
C         -0.97757        9.36335       -1.31206
C         -1.02346       10.58763       -2.02405
S         -1.42248       10.58150       -3.67481
C         -1.24446       12.27748       -3.79554
C         -0.91422       12.86842       -2.58560
C         -0.72608       11.86278       -1.57494
O         -0.36167       12.06428       -0.28465
C          0.66572       13.03955       -0.14920
C          0.10478       14.44184        0.02876
C         -1.02195       14.80772       -0.94088
C         -0.76623       14.35419       -2.37707
C         -1.48422       12.88092       -5.05113
C         -0.46493       13.10382       -5.89563
C         -0.66602       13.70613       -7.17235
S         -1.91038       14.84731       -7.42724
C         -1.54893       15.04055       -9.09286
C         -0.40458       14.32578       -9.44470
C          0.05317       13.52238       -8.33851
O          1.10696       12.66194       -8.35388
C          1.13468       11.85445       -9.52952
C          1.97073       12.49305      -10.63259
C          1.73256       13.98862      -10.81970
C          0.26137       14.37593      -10.79839
C         -2.42221       15.91575       -9.80356
C         -2.47307       15.98630      -11.13993
C         -3.30120       16.89525      -11.85917
S         -4.54778       17.79743      -11.13005
C         -5.05286       18.51748      -12.60380
C         -4.20957       18.14551      -13.65183
C         -3.24499       17.17233      -13.21158
O         -2.28494       16.57418      -13.96966
C         -2.75926       16.15177      -15.24230
C         -2.57032       17.23842      -16.29278
C         -2.99135       18.63769      -15.83865
C         -4.31039       18.66495      -15.06463
C         -6.16564       19.41660      -12.60971
C         -7.20834       19.28990      -11.77504
H         -8.17787        1.29253        3.42141
H         -5.22586       -1.80451        3.48506
H         -4.68679       -0.18174        3.84850
H         -3.84039       -2.07107        1.71763
H         -2.93997       -0.77479        2.46777
H         -4.96543       -0.51761        0.16973
H         -3.21604       -0.42038        0.05306
H         -4.08350        1.81227       -0.00761
H         -3.16625        1.56867        1.48364
H         -5.48830        5.22589        1.31667
H         -2.93369        3.60316        1.88512
H          0.66047        4.95679        0.48348
H          0.96344        3.84064        1.79581
H          2.51510        5.86477        1.70721
H          1.80339        5.48196        3.26846
H          1.84520        7.93422        2.63437
H          0.31897        7.31106        3.24162
H          0.97796        7.58223        0.26123
H          0.19939        8.84017        1.22958
H         -2.98315        9.50996       -0.68148
H         -0.04797        8.81025       -1.34752
H          1.37881       12.99190       -0.98602
H          1.24491       12.77279        0.74704
H          0.92472       15.16233       -0.06973
H         -0.28461       14.55062        1.04700
H         -1.14705       15.89747       -0.92372
H         -1.96771       14.38475       -0.57801
H          0.23142       14.66937       -2.70484
H         -1.49083       14.87214       -3.01891
H         -2.51415       13.12958       -5.28873
H          0.54549       12.79273       -5.64155
H          0.12091       11.61405       -9.87976
H          1.58943       10.89580       -9.25547
H          1.77631       11.96361      -11.57357
H          3.03474       12.35314      -10.41009
H          2.16087       14.28465      -11.78570
H          2.27853       14.55343      -10.05387
H         -0.29929       13.74319      -11.49778
H          0.21782       15.40768      -11.16741
H         -3.07976       16.53825       -9.20086
H         -1.85691       15.35015      -11.75983
H         -3.80155       15.80752      -15.19328
H         -2.16864       15.27537      -15.53246
H         -3.12289       16.95433      -17.19598
H         -1.51153       17.28354      -16.57722
H         -3.08251       19.26883      -16.73017
H         -2.19071       19.07955      -15.23018
H         -5.07806       18.09559      -15.60291
H         -4.64663       19.70852      -15.03478
H         -6.16874       20.22692      -13.33089
H         -7.28788       18.49069      -11.04344
H         -8.02997       19.99715      -11.80433
