64

C         -1.72755       -2.20031        0.79249
N         -0.55137       -2.76384        1.07556
C          0.39420       -2.64743        0.14272
N          0.20068       -1.96211       -0.97185
C         -1.00863       -1.43989       -1.14993
N         -2.03029       -1.53290       -0.31302
N          1.58396       -3.31132        0.43758
C          2.64799       -3.76156       -0.27876
S          3.74471       -4.77296        0.63307
C          4.78613       -4.99149       -0.67594
N          5.97635       -5.79170       -0.55987
O          6.69751       -5.84988       -1.55948
O          6.19301       -6.36693        0.51550
C          4.36873       -4.32610       -1.79789
C          3.13050       -3.63464       -1.58104
C          2.60532       -2.85192       -2.64828
C          1.40438       -2.98495       -3.22376
C          0.87568       -2.07052       -4.21648
C          0.96631       -0.72779       -4.23408
C          0.33470        0.08346       -5.24285
C          0.65655        1.37947       -5.16227
C          1.57608        1.70120       -4.08289
S          1.81441        0.29029       -3.07747
C          2.17305        2.89426       -3.90363
C          2.05256        4.00583       -4.82665
C          2.65417        5.12303       -4.41383
C          3.27308        4.99546       -3.11809
S          3.23325        3.34002       -2.55992
C          3.77085        6.02151       -2.41544
N          3.68492        7.37933       -2.70127
C          2.53072        8.12749       -2.65438
S          0.95431        7.44638       -2.41016
C          0.22142        8.96126       -2.38921
N         -1.19292        9.05279       -2.21750
O         -1.79272        9.79558       -3.00667
O         -1.69887        8.42013       -1.28301
C          1.09694        9.99909       -2.57848
C          2.43758        9.51567       -2.72419
C          3.57749       10.36634       -2.89971
C          3.87543       11.38017       -2.07046
C          5.07745       12.20551       -2.16666
N          5.68932       12.31174       -3.34694
C          6.78545       13.06650       -3.32160
N          7.30330       13.66208       -2.24957
C          6.60597       13.46827       -1.13336
N          5.48115       12.76750       -1.02763
H         -2.51480       -2.30371        1.52989
H         -1.18136       -0.90003       -2.07665
H          1.49008       -3.64943        1.38893
H          4.91377       -4.32841       -2.73663
H          3.28586       -2.09461       -3.03190
H          0.73137       -3.77714       -2.90196
H          0.27814       -2.56455       -4.98118
H         -0.33385       -0.32319       -5.98808
H          0.25691        2.12079       -5.83743
H          1.54810        3.93886       -5.77752
H          2.68205        6.04143       -4.98211
H          4.28203        5.84788       -1.46936
H          4.54028        7.87694       -2.45588
H          0.80072       11.04207       -2.60254
H          4.25467       10.12360       -3.71875
H          3.24843       11.60156       -1.21262
H          7.30845       13.20821       -4.26130
H          6.99222       13.91789       -0.22481
