79

C          0.38109        1.54448       -4.39858
S         -0.22088        3.11476       -4.74135
C         -0.68107        3.37796       -3.10089
C         -0.36877        2.26165       -2.35957
C          0.23653        1.20343       -3.07033
C         -0.66698        2.25887       -0.95404
C         -1.25346        3.37649       -0.37974
S         -1.43361        3.04486        1.31884
C         -0.79093        1.46931        1.18878
C         -0.39477        1.17119       -0.09374
C         -1.58093        4.53459       -1.13353
C         -1.27650        4.50356       -2.52053
C         -2.19620        5.73237       -0.53745
N         -1.93938        6.91968       -1.12303
C         -2.52639        8.00036       -0.57740
C         -3.36645        7.94361        0.50772
C         -3.57241        6.68969        1.03566
N         -3.00657        5.58195        0.52084
C         -4.44982        6.50610        2.19900
C         -4.26892        5.51369        3.08468
C         -5.13170        5.29211        4.22612
C         -4.99645        4.32833        5.15082
C         -5.91211        4.15581        6.25213
C         -5.59971        3.13159        7.05564
C         -4.40211        2.40779        6.65799
S         -3.72653        3.12652        5.19948
C         -3.87523        1.34795        7.30190
C         -4.42245        0.74358        8.50401
C         -3.71408       -0.29280        8.96549
C         -2.55372       -0.59317        8.16581
S         -2.40624        0.49138        6.81002
C         -1.69969       -1.58330        8.45093
N         -0.54675       -1.96258        7.79750
C          0.31664       -2.96102        8.14447
S         -0.20646       -4.35445        9.03108
C          1.31781       -5.05966        8.95373
N          1.50675       -6.35545        9.51948
O          2.01195       -7.20826        8.77911
O          1.17517       -6.51440       10.70107
C          2.24759       -4.29645        8.29475
C          1.67407       -3.06090        7.83694
C          2.45439       -2.07422        7.13568
C          2.29705       -0.74117        7.20997
C          3.11186        0.12857        6.43764
S          4.54055        0.81017        7.11665
C          4.89995        1.70899        5.69165
C          3.92552        1.46373        4.74865
C          2.90079        0.57924        5.14559
C          4.01439        2.11394        3.47127
C          5.07104        2.96738        3.22903
S          4.92575        3.60607        1.63392
C          3.47867        2.72955        1.33381
C          3.09531        1.96175        2.40869
C          6.06008        3.21378        4.19507
C          5.97299        2.57597        5.43993
H          0.81144        0.94852       -5.19176
H          0.55791        0.25123       -2.66999
H         -0.72912        0.84278        2.06764
H          0.05019        0.22370       -0.36494
H         -1.51028        5.36685       -3.14202
H         -2.28963        8.94704       -1.05423
H         -3.81420        8.83459        0.92480
H         -5.25910        7.21963        2.31083
H         -3.43195        4.83158        2.95030
H         -5.97211        5.97799        4.31711
H         -6.77021        4.79633        6.40310
H         -6.19021        2.87445        7.92252
H         -5.32003        1.09230        8.99244
H         -3.97442       -0.85609        9.85083
H         -1.89724       -2.17705        9.34074
H         -0.31090       -1.34686        7.01946
H          3.28260       -4.59180        8.16398
H          3.26909       -2.46116        6.52272
H          1.54553       -0.28252        7.84624
H          2.04631        0.28423        4.55064
H          2.97951        2.82773        0.37779
H          2.20818        1.34290        2.40431
H          6.88083        3.89284        3.98173
H          6.72838        2.75875        6.19931
