91

C         14.58044       -0.58656       -3.24112
O         15.21673       -1.46892       -2.42458
C         14.93705       -1.09680       -1.14885
C         14.11788        0.00858       -1.13851
C         13.88632        0.34208       -2.49763
C         13.11280        1.41059       -3.03916
C         12.04585        1.96145       -2.43389
C         11.27119        3.04187       -3.00494
C         10.18913        3.55916       -2.39811
C          9.40282        4.64843       -2.94702
C          8.07948        4.58034       -3.24819
O          7.37673        5.67044       -3.77581
C          8.09957        6.78853       -3.97995
C          9.47126        6.85986       -3.67551
C         10.01848        8.08417       -3.96589
S          8.82854        9.14269       -4.62404
C          7.59497        7.94889       -4.50509
O         10.15439        5.81285       -3.16122
C          7.24631        3.41700       -3.04095
C          6.16188        3.12394       -3.77959
C          5.36235        1.97623       -3.51383
S          3.69423        2.05661       -3.89977
C          3.37384        0.48146       -3.30572
C          4.52339       -0.10550       -2.79793
C          5.68481        0.72339       -3.00979
C          7.06429        0.21104       -2.69637
C          7.13707       -1.31917       -2.67927
C          7.07060       -1.94006       -4.07904
O          6.01214       -2.22855       -4.63868
C          8.37239       -2.22382       -4.77196
C          6.04181       -1.87643       -1.76804
C          4.63028       -1.49584       -2.21812
C          2.04659       -0.00973       -3.44164
C          1.52103       -0.86505       -2.55673
C          0.20563       -1.35871       -2.70194
S         -0.65670       -1.82218       -1.26384
C         -1.99503       -2.20111       -2.17213
C         -1.82933       -2.03344       -3.51144
C         -0.55479       -1.56035       -3.84891
C         -3.04779       -2.41223       -4.15876
O         -3.31183       -2.40386       -5.34762
C         -3.94502       -2.82664       -3.01066
C         -3.26932       -2.67921       -1.85566
C         -5.27774       -3.32277       -3.21052
C         -6.07719       -3.70003       -2.20953
C         -7.40176       -4.24125       -2.40469
C         -8.23038       -4.63339       -1.42955
C         -9.53595       -5.18890       -1.67077
C        -10.19833       -5.50695       -0.55453
C         -9.47003       -5.22419        0.67515
S         -7.89091       -4.55076        0.28519
C         -9.90758       -5.42949        1.93280
C        -11.20069       -5.98058        2.30685
C        -11.39441       -6.07157        3.62835
C        -10.27475       -5.60082        4.40132
S         -8.97498       -5.05154        3.38439
C        -10.20886       -5.57276        5.73349
H         14.71039       -0.76296       -4.30011
H         15.38816       -1.70245       -0.37512
H         13.75274        0.51578       -0.25707
H         13.41702        1.78362       -4.01596
H         11.72140        1.57958       -1.46812
H         11.59061        3.43555       -3.96863
H          9.85422        3.16835       -1.44062
H         11.03760        8.41133       -3.83328
H          6.58337        8.15529       -4.82555
H          7.53840        2.77462       -2.21990
H          5.85203        3.78564       -4.58626
H          7.32963        0.58105       -1.69588
H          7.79558        0.61346       -3.40505
H          8.10467       -1.60844       -2.24998
H          8.16600       -2.73532       -5.71774
H          8.97700       -2.88701       -4.14925
H          8.90009       -1.29183       -4.97851
H          6.19832       -1.48240       -0.75399
H          6.11658       -2.96704       -1.69158
H          3.99352       -1.58692       -1.33455
H          4.26300       -2.22149       -2.95345
H          1.45526        0.35445       -4.27890
H          2.06283       -1.17944       -1.67574
H         -0.20725       -1.37259       -4.85715
H         -3.61010       -2.88864       -0.85101
H         -5.60733       -3.39000       -4.24902
H         -5.72861       -3.62301       -1.18180
H         -7.72489       -4.33924       -3.43712
H         -9.93160       -5.33301       -2.66421
H        -11.19086       -5.93564       -0.56277
H        -11.94339       -6.29037        1.58507
H        -12.29624       -6.45615        4.08389
H        -11.03079       -5.91934        6.35071
H         -9.32697       -5.19962        6.24666
