77

C         -2.24318        4.22305        1.65274
O         -3.29044        3.36294        1.56111
C         -2.89307        2.34655        0.75270
C         -1.60344        2.54997        0.31805
C         -1.17742        3.76371        0.91023
C          0.09246        4.38941        0.76399
C          0.65811        5.18116        1.68746
C          1.95156        5.79909        1.52156
C          2.49465        6.55388        2.48730
C          3.76166        7.17163        2.33066
S          4.73919        7.44680        3.74752
C          5.92238        8.17677        2.82977
C          5.62649        8.23183        1.49948
C          4.39211        7.64729        1.18133
C          6.69882        8.90872        0.83604
O          6.79141        9.17415       -0.34864
C          7.66788        9.23269        1.96227
C          7.15237        8.77962        3.12580
C          8.89938        9.94865        1.79896
C          9.60879        9.91811        0.66317
C         10.81934       10.63864        0.52611
S         11.28215       11.16898       -1.06521
C         12.67552       11.84272       -0.45854
C         12.83516       11.69114        0.88532
C         11.76560       11.00148        1.48086
C         14.08672       12.28853        1.25695
O         14.59557       12.36937        2.35286
C         14.63728       12.79996       -0.06934
C         13.74665       12.51589       -1.04643
C         15.90607       13.46186       -0.20050
C         16.37144       13.92092       -1.37141
C         17.61531       14.58938       -1.47647
S         17.81932       15.75988       -2.75366
C         19.38805       16.04878       -2.27621
C         19.77829       15.31375       -1.19706
C         18.77157       14.46284       -0.71428
C         21.14378       15.65217       -0.90129
O         21.85376       15.20239       -0.02333
C         21.49104       16.68033       -1.96227
C         20.41069       16.88325       -2.74745
C         22.76020       17.34155       -2.04972
C         23.54974       17.28682       -3.13342
C         24.77833       18.00564       -3.16237
O         24.95661       19.18198       -2.45962
C         26.20538       19.64343       -2.69254
C         26.88134       18.78969       -3.52282
C         25.97345       17.74253       -3.83671
C         26.23140       16.62395       -4.69190
C         27.43857       16.05795       -4.86105
C         27.68191       14.96310       -5.77109
C         28.88026       14.38158       -5.90148
H         -2.41349        5.09778        2.26517
H         -3.62571        1.56937        0.58795
H         -1.04022        1.89166       -0.32815
H          0.63433        4.17975       -0.15654
H          0.14335        5.37116        2.62744
H          2.47918        5.61843        0.58724
H          1.97349        6.69899        3.43128
H          3.96955        7.60445        0.18498
H          7.59538        8.84775        4.10861
H          9.23196       10.53406        2.65307
H          9.26938        9.33762       -0.19307
H         11.69686       10.76090        2.53420
H         13.82348       12.74240       -2.09767
H         16.46905       13.58583        0.72477
H         15.79327       13.81221       -2.28460
H         18.88079       13.78294        0.12183
H         20.32732       17.57321       -3.57421
H         23.06557       17.88901       -1.15914
H         23.27505       16.69274       -3.99885
H         26.45920       20.57442       -2.20620
H         27.89608       18.91693       -3.87202
H         25.38450       16.21669       -5.23947
H         28.29455       16.42441       -4.29722
H         26.85496       14.61232       -6.38454
H         29.74032       14.68929       -5.31472
H         29.02677       13.57116       -6.60887
