100

C          9.93071       14.34790      -19.38982
O          9.84824       14.04098      -20.71025
C         10.73940       13.04255      -20.93796
C         11.39759       12.70710      -19.77575
C         10.86794       13.55082      -18.77280
C         11.23602       13.58057      -17.40174
C         10.40882       13.90907      -16.39394
C         10.82786       13.90426      -15.01500
C          9.95484       13.79891      -14.00280
C         10.40635       13.78019      -12.65665
S          9.50861       12.87270      -11.46704
C         10.60282       13.28668      -10.27835
C         11.59624       14.10724      -10.71960
C         11.51315       14.40089      -12.08569
C         12.44793       14.41678       -9.61065
O         13.45321       15.10096       -9.61175
C         11.80535       13.67039       -8.45347
C         10.72926       12.99362       -8.91276
C         12.32855       13.64436       -7.11942
C         13.03460       14.65235       -6.58684
C         13.58233       14.54495       -5.28446
S         13.76832       15.98137       -4.31743
C         14.42055       15.08929       -3.06985
C         14.51645       13.75703       -3.34060
C         14.04971       13.41763       -4.61599
C         15.09035       13.10932       -2.19664
O         15.32293       11.92590       -2.03776
C         15.33511       14.25310       -1.23154
C         14.90447       15.40386       -1.79222
C         15.86837       14.05066        0.07871
C         16.89205       14.75343        0.59380
C         17.43525       14.52854        1.92102
C         18.48001       15.20446        2.46595
O         18.95836       14.92503        3.75664
C         18.30962       13.94440        4.42299
C         17.23187       13.23968        3.85711
C         16.71331       12.27919        4.68550
S         17.55658       12.25674        6.18652
C         18.60424       13.53253        5.69404
O         16.77956       13.50726        2.61763
C         19.19993       16.28946        1.82658
C         20.53112       16.29438        1.65146
C         21.26566       17.40068        1.04822
C         22.31804       17.91928        1.73423
C         23.07942       19.02022        1.17102
C         24.15399       19.70150        1.64786
C         24.92187       19.48961        2.93614
C         26.40666       19.10019        2.70202
N         26.57755       17.85318        1.95633
C         24.86083       20.70265        3.90093
N         23.50408       21.02847        4.34243
C         24.45284       20.69894        0.61847
C         25.38428       21.66238        0.55506
C         25.51977       22.59501       -0.63793
C         24.52997       22.30840       -1.76064
C         23.58732       21.35038       -1.69207
C         23.52214       20.54760       -0.49880
C         22.69578       19.54801       -0.15747
C         21.59022       18.95642       -0.86963
C         20.92389       17.93978       -0.28863
C         25.38485       24.02654       -0.17552
C         26.41619       24.80904        0.17373
H          9.27905       15.14227      -19.05566
H         10.78536       12.68026      -21.95377
H         12.15053       11.93779      -19.67188
H         12.24967       13.26070      -17.16204
H          9.37186       14.16920      -16.59504
H         11.89844       13.96695      -14.82768
H          8.89255       13.67401      -14.19620
H         12.21173       15.02983      -12.62403
H         10.07057       12.35263       -8.34415
H         12.11124       12.74905       -6.54110
H         13.20002       15.57806       -7.13558
H         14.06299       12.41885       -5.03516
H         14.90276       16.38657       -1.34404
H         15.40195       13.24130        0.63674
H         17.37192       15.51600       -0.01604
H         15.89641       11.59695        4.49454
H         19.37357       13.90273        6.36057
H         18.60143       17.14445        1.51960
H         21.12968       15.44310        1.97239
H         22.59541       17.54659        2.71386
H         24.46635       18.64744        3.47583
H         26.90688       18.98397        3.67101
H         26.94364       19.89288        2.17251
H         26.08693       17.09547        2.42815
H         27.56331       17.59780        1.93479
H         25.30996       21.59225        3.44899
H         25.45226       20.47955        4.79749
H         22.92472       21.22317        3.52413
H         23.52497       21.89461        4.88128
H         26.09828       21.81198        1.35446
H         26.52415       22.44033       -1.05534
H         24.61227       22.91225       -2.66020
H         22.90265       21.16516       -2.51065
H         21.32174       19.32230       -1.85298
H         20.10151       17.46798       -0.81860
H         24.37512       24.42718       -0.10194
H         27.43963       24.44756        0.14776
H         26.24996       25.82570        0.51603
