76

C         -1.04997        2.60583        1.09174
O         -2.01633        1.74450        1.50060
C         -1.65532        1.31104        2.73521
C         -0.46646        1.88525        3.12369
C         -0.07335        2.72678        2.05319
C          1.08975        3.53928        1.98674
C          1.42975        4.31476        0.94272
C          2.61892        5.12129        0.92700
C          2.84481        6.09702        1.81806
C          4.03206        6.87315        1.77593
S          4.27254        8.12019        2.97567
C          5.74642        8.52085        2.30997
C          6.07270        7.76677        1.22590
C          5.10850        6.81068        0.89702
C          7.34260        8.20369        0.73733
O          7.95876        7.76142       -0.21396
C          7.71344        9.33523        1.68061
C          6.73339        9.47124        2.60328
C          8.90982       10.12109        1.60075
C          9.85282        9.97249        0.65858
C         11.05206       10.73877        0.59772
C         11.79016       11.25183        1.58317
C         12.91357       11.90199        1.00681
C         12.83884       11.74092       -0.45401
O         13.60505       12.14561       -1.29868
N         11.66551       11.00301       -0.61009
C         13.59169       12.38737        2.03023
O         13.01664       12.11239        3.29865
C         11.86854       11.38635        3.03647
O         11.07851       10.96372        3.86295
C         14.79213       13.12348        1.97387
S         15.91466       13.01868        3.30621
C         16.95393       14.07648        2.55549
C         16.52020       14.52166        1.34436
C         15.27631       13.97487        0.97960
C         17.51034       15.43428        0.83318
O         17.50751       16.04370       -0.22020
C         18.56256       15.47171        1.92817
C         18.18920       14.62537        2.91390
C         19.76498       16.25716        1.85673
C         20.37594       16.73404        2.95102
C         21.59888       17.50610        2.93444
C         22.23450       17.97590        4.01984
C         23.47329       18.71206        3.97128
C         23.97994       18.99150        5.17999
C         23.18192       18.49081        6.28782
S         21.70480       17.75839        5.67218
C         23.51757       18.52705        7.59206
C         24.74988       19.06844        8.13805
C         24.88598       18.89221        9.45930
C         23.76886       18.21124       10.05981
S         22.52726       17.85637        8.89386
C         23.67362       17.87008       11.34703
H         -1.20154        3.04142        0.11351
H         -2.33567        0.60992        3.19859
H          0.04420        1.71468        4.06046
H          1.75330        3.51626        2.85348
H          0.83149        4.35239        0.03907
H          3.30897        4.89713        0.11780
H          2.10974        6.31073        2.59055
H          5.19599        6.12125        0.06698
H          6.69642       10.17880        3.41932
H          9.02147       10.87401        2.37956
H          9.74443        9.23397       -0.13064
H         11.32178       10.70877       -1.51509
H         14.75299       14.19817        0.05626
H         18.72592       14.40286        3.82468
H         20.15048       16.45734        0.85937
H         19.93985       16.53317        3.92783
H         22.03213       17.68973        1.95301
H         23.94718       18.99181        3.04050
H         24.90913       19.52551        5.31327
H         25.50269       19.55277        7.53377
H         25.74696       19.21534       10.02724
H         24.46610       18.09189       12.05299
H         22.80065       17.35046       11.73018
