63

C          0.19795        1.81439       -4.06899
O         -0.76072        1.13773       -4.75353
C         -1.48779        2.06489       -5.42798
C         -1.00282        3.32968       -5.18384
C          0.09191        3.16875       -4.29692
C          0.91333        4.19871       -3.74905
C          1.98477        4.00078       -2.96485
C          2.78280        5.07908       -2.42806
C          4.06080        4.90745       -2.06207
C          4.81682        5.98274       -1.53869
N          6.17730        5.99197       -1.78529
C          6.79355        7.10469       -1.21945
C          5.78724        7.81136       -0.59596
C          4.55409        7.11110       -0.79771
N          3.34720        7.50852       -0.31613
C          3.48487        8.67138        0.38308
C          4.69059        9.36245        0.57723
N          5.90758        8.97218        0.10277
C          8.19966        7.34538       -1.33435
S          9.04428        8.68198       -0.63162
C         10.60345        8.18146       -1.22564
C         10.41684        7.03771       -1.92472
C          9.11365        6.59163       -1.98006
O          8.87854        5.43423       -2.66442
C         10.17094        5.14470       -3.06060
N         10.31694        3.94554       -3.82945
O         11.46496        3.64525       -4.17337
O          9.28830        3.30176       -4.08691
C         11.13915        6.06336       -2.64086
C         11.78958        8.93153       -0.94897
N         11.92114        9.71695        0.18181
C         13.15623       10.34088        0.24523
C         13.82585        9.94831       -0.89448
C         12.97258        9.06483       -1.63726
N         13.29897        8.48397       -2.82190
C         14.55489        8.86377       -3.19674
C         15.39340        9.72348       -2.46899
N         15.07821       10.31203       -1.27894
C         13.53732       11.20085        1.33440
S         12.48750       11.49224        2.66266
C         13.60929       12.52334        3.43955
C         13.30525       13.16568        4.70355
O         13.83586       14.18181        5.12774
O         12.37672       12.48680        5.42740
C         14.76368       12.65434        2.69527
C         14.72642       11.88492        1.49491
H          0.86023        1.19900       -3.47704
H         -2.29943        1.67361       -6.02473
H         -1.39674        4.24727       -5.59712
H          0.65218        5.22095       -4.02096
H          2.29483        2.99421       -2.69586
H          2.30237        6.05134       -2.33352
H          4.54181        3.94006       -2.20130
H          6.67165        5.29574       -2.32727
H          2.56208        9.05856        0.80670
H          4.70219       10.28847        1.14550
H         12.20186        6.01420       -2.83693
H         11.20173        9.81611        0.88586
H         14.89420        8.44371       -4.13969
H         16.38283        9.96566       -2.84750
H         12.09784       11.66859        4.97343
H         15.60501       13.26404        3.00753
H         15.54271       11.84458        0.78219
