74

C         12.39410        6.26196       -5.08646
O         13.43753        5.62020       -5.67400
C         13.15047        4.29234       -5.64093
C         11.93267        4.07409       -5.04106
C         11.44546        5.35366       -4.68155
C         10.20979        5.63977       -4.04462
C          9.97467        6.68002       -3.23455
C          8.70358        6.92706       -2.59254
C          7.86885        5.95741       -2.19260
C          6.59236        6.18828       -1.55089
C          5.56414        5.30512       -1.54455
O          4.36759        5.56433       -0.85757
C          4.31784        6.75147       -0.20822
C          5.39309        7.65888       -0.20303
C          5.15455        8.79519        0.51945
S          3.56992        8.75899        1.19075
C          3.23893        7.21197        0.50443
O          6.54571        7.40423       -0.85942
C          5.56256        4.04382       -2.27684
C          5.30123        2.85632       -1.70990
C          5.42239        1.62589       -2.42430
S          4.02420        0.87615       -3.07515
C          4.83947       -0.60316       -3.43109
C          6.21369       -0.42639       -3.26252
C          6.53867        0.84403       -2.67130
S          8.18045        1.35245       -2.22765
C          9.14926        0.27821       -3.18469
O         10.00307        0.57347       -3.99076
C          8.79406       -1.10758       -2.69087
O          9.38950       -1.74996       -1.85267
S          7.46209       -1.62519       -3.66922
C          4.08106       -1.75856       -3.91965
S          4.62423       -2.55096       -5.36214
C          3.38420       -3.69090       -5.31502
N          3.28057       -4.70401       -6.33126
O          2.32804       -5.48758       -6.22942
O          4.13034       -4.72184       -7.23111
C          2.53195       -3.50412       -4.25577
C          2.91454       -2.37909       -3.44312
C          2.16002       -1.98319       -2.27841
C          1.36281       -2.78031       -1.54182
C          0.68915       -2.36267       -0.32530
C          1.27691       -1.85563        0.77053
C          0.58098       -1.52723        1.99111
C          1.38021       -1.03951        2.94963
C          2.77468       -0.92435        2.55886
S          2.99148       -1.55117        0.93047
C          3.77483       -0.40886        3.29962
C          3.64730        0.12356        4.64496
C          4.78904        0.60641        5.15275
C          5.90551        0.49259        4.25122
S          5.44987       -0.25935        2.75018
C          7.14802        0.90744        4.50931
H         12.46901        7.33959       -5.04702
H         13.89681        3.64268       -6.07502
H         11.46658        3.11121       -4.87587
H          9.41406        4.92131       -4.22979
H         10.75040        7.41732       -3.03042
H          8.46277        7.97620       -2.42147
H          8.13723        4.91473       -2.34638
H          5.81381        9.63818        0.68729
H          2.28344        6.73613        0.66114
H          5.84185        4.11042       -3.32801
H          5.05648        2.79292       -0.65158
H          1.66235       -4.12940       -4.08088
H          2.24542       -0.94788       -1.96249
H          1.19664       -3.82199       -1.80319
H         -0.38206       -2.56335       -0.30805
H         -0.48327       -1.67632        2.11610
H          1.01540       -0.75522        3.92626
H          2.71640        0.13275        5.19212
H          4.87632        1.04105        6.13826
H          7.40460        1.37481        5.45355
H          7.94639        0.79130        3.78259
