57

C         10.56505       11.29789       -4.22823
O         10.81296       12.36091       -5.03979
C          9.70234       13.14379       -5.01466
C          8.74876       12.59754       -4.18751
C          9.30313       11.39354       -3.68660
C          8.67871       10.48629       -2.77524
C          8.80723        9.15021       -2.80122
C          8.15948        8.26919       -1.83732
C          8.23762        6.92807       -1.90875
C          7.72435        5.96440       -0.95854
C          7.90711        6.09752        0.41638
S          8.80839        7.31398        1.32969
S          7.14566        4.85397        1.29843
C          6.64361        4.05500       -0.10757
O          6.02357        2.88612        0.03938
C          6.98399        4.73373       -1.26943
C          6.54575        4.18519       -2.62295
S          5.17412        3.13592       -2.86542
C          5.22687        3.19187       -4.60688
C          6.34569        3.89807       -4.92467
C          7.08900        4.35173       -3.84549
O          8.31357        4.88151       -4.11908
C          8.28922        4.82546       -5.49081
N          9.49991        5.22961       -6.13531
O          9.41705        5.49973       -7.34151
O         10.53534        5.24472       -5.45748
C          7.09503        4.35615       -6.03609
C          4.26460        2.40699       -5.50403
C          4.69106        1.73751       -6.65259
S          6.29063        1.57787       -7.37760
S          3.45543        0.81918       -7.38400
C          2.34069        1.20875       -6.17713
O          1.12690        0.67072       -6.28233
C          2.84775        2.09996       -5.23701
C          1.92642        2.63495       -4.13754
S          0.48817        1.83625       -3.62403
C          0.09919        3.03447       -2.47974
C         -1.10025        2.95349       -1.67149
O         -1.26774        3.50633       -0.59287
O         -2.08669        2.22881       -2.26437
C          1.06654        4.01514       -2.44837
C          2.06913        3.82422       -3.45140
H         11.38048       10.59341       -4.13217
H          9.74797       14.03749       -5.62217
H          7.77404       13.01876       -3.98584
H          8.04351       10.94126       -2.01976
H          9.41742        8.67939       -3.56732
H          7.63548        8.75076       -1.01548
H          8.78038        6.51900       -2.75001
H          9.64085        7.71700        0.36018
H          5.99936        2.72908        0.99970
H          6.88160        4.28173       -7.09247
H          6.54337        0.32107       -6.99194
H          1.17199        0.08119       -7.05605
H         -1.81147        1.90436       -3.14433
H          1.02671        4.86182       -1.77125
H          2.85136        4.54810       -3.63602
