90

C         -1.09337        6.14563        3.15401
O         -2.44327        5.98925        3.11839
C         -2.79758        5.93866        1.80863
C         -1.68937        6.06386        1.00387
C         -0.57998        6.19536        1.87652
C          0.80325        6.33108        1.56579
C          1.32179        6.37420        0.32801
C          2.73975        6.47997        0.07212
C          3.61990        5.54370        0.46015
C          5.04286        5.64202        0.22616
C          5.79304        4.71707       -0.42262
O          7.18409        4.84822       -0.55601
C          7.71954        5.96842       -0.02769
C          6.94039        6.92951        0.64219
C          7.67877        7.98223        1.11712
S          9.34233        7.79218        0.71188
C          9.04980        6.29520       -0.08603
O          5.60436        6.79805        0.78817
C          5.32802        3.50503       -1.06433
C          4.40639        3.47135       -2.03537
N          4.02016        2.39400       -2.81404
C          4.91279        1.27567       -3.15936
N          4.60683        0.67117       -4.47334
C          3.91909        1.78867       -5.11054
N          3.12525        1.28971       -6.22719
C          2.00054        2.21484       -6.43335
C          2.24124        3.67056       -5.79510
N          2.42409        3.74248       -4.35789
C          3.07959        2.49185       -3.93037
N          1.05816        4.42541       -6.17411
C          0.82738        3.88918       -7.53280
N          1.50181        2.59717       -7.75101
C          1.15093        1.69821       -8.73926
C          0.50210        1.94690       -9.88402
C          0.13948        0.90969      -10.82963
C         -1.11212        0.63595      -11.22989
C         -1.47164       -0.37410      -12.19700
C         -2.79286       -0.47071      -12.42054
C         -3.59089        0.44426      -11.62484
S         -2.52755        1.44126      -10.61903
C         -4.93290        0.57257      -11.61265
C         -5.91531       -0.13669      -12.41033
C         -7.17857        0.28484      -12.22254
C         -7.29998        1.37453      -11.27001
S         -5.74996        1.70432      -10.54874
C         -8.44363        2.02070      -10.97791
C         -8.56096        3.14355      -10.10688
S         -7.46196        4.49689       -9.99507
C         -8.37315        5.30448       -8.76437
C         -9.49921        4.59154       -8.56982
C         -9.60504        3.42604       -9.29707
O        -10.74467        2.69624       -9.12244
C        -11.38880        3.51282       -8.20332
N        -12.68422        3.06726       -7.78494
O        -13.29342        3.81450       -7.00935
O        -13.10565        1.98902       -8.22665
C        -10.68441        4.66146       -7.82819
H         -0.65988        6.19695        4.14348
H         -3.85290        5.81028        1.61367
H         -1.69096        6.05209       -0.07636
H          1.48788        6.40177        2.41104
H          0.68738        6.34828       -0.55409
H          3.06256        7.34551       -0.50030
H          3.28285        4.64784        0.97788
H          7.33940        8.84544        1.67163
H          9.85599        5.74418       -0.55007
H          5.85959        2.59932       -0.78846
H          3.89053        4.39036       -2.31752
H          4.86488        0.50600       -2.38081
H          5.95148        1.62873       -3.20055
H          3.89944       -0.04348       -4.31899
H          4.67523        2.49659       -5.48247
H          3.70210        1.31740       -7.06359
H          1.15028        1.75967       -5.90204
H          3.11784        4.12621       -6.28030
H          1.50252        3.76350       -3.92827
H          2.26155        1.79993       -3.67343
H          1.29788        5.41052       -6.23564
H          1.18916        4.61114       -8.27531
H         -0.25412        3.77831       -7.67036
H          1.44132        0.67715       -8.49323
H          0.19454        2.95951      -10.13521
H          0.97191        0.33632      -11.22523
H         -0.72984       -0.98599      -12.69155
H         -3.22298       -1.17447      -13.11942
H         -5.65123       -0.92136      -13.10592
H         -8.03268       -0.12312      -12.74821
H         -9.36830        1.66821      -11.43149
H         -8.03330        6.23243       -8.32713
H        -11.01611        5.42344       -7.13751
