75

C          1.70676        9.22117      -10.33811
O          0.73878        8.46752      -10.92472
C         -0.10564        8.07510       -9.93622
C          0.31233        8.56803       -8.72216
C          1.49127        9.31485       -8.98112
C          2.27288       10.02635       -8.02486
C          3.37596       10.75095       -8.28038
C          4.14235       11.47011       -7.28074
C          3.59427       12.11017       -6.23788
C          4.35425       12.80786       -5.21768
C          3.83959       13.32717       -4.09141
C          4.61814       13.91593       -3.02730
C          3.92348       14.08324       -1.89078
C          2.54339       13.63489       -1.98228
S          2.14867       13.28607       -3.66160
C          1.69787       13.39472       -0.96230
C          1.99254       13.52369        0.45204
C          1.07521       12.94868        1.24549
C         -0.01752       12.33831        0.52069
S          0.08289       12.71857       -1.17935
C         -0.94939       11.54741        1.07816
C         -1.95532       10.89486        0.33054
S         -3.52380       11.53419        0.00371
C         -4.06795       10.09172       -0.85033
C         -3.01974        9.23179       -0.87018
C         -1.88360        9.66712       -0.21987
O         -0.82026        8.81503       -0.17312
C         -1.37119        7.74803       -0.85014
N         -0.53780        6.58932       -0.91117
O         -1.09814        5.50283       -0.71532
O          0.65835        6.75919       -1.17420
C         -2.68219        7.93380       -1.30606
C         -5.41412       10.03436       -1.30871
C         -6.40138        9.48544       -0.58143
C         -7.81239        9.65026       -0.85994
C         -8.60532        9.30481        0.17264
C         -7.87583        8.80986        1.32729
S         -6.17114        8.59489        0.89983
C         -8.33260        8.66199        2.58596
C         -9.63738        9.02395        3.11123
C         -9.61012        9.28141        4.43399
C         -8.28052        9.14059        5.00148
S         -7.29455        8.18890        3.92412
C         -7.86406        9.73558        6.13232
C         -6.49993        9.79230        6.57046
S         -6.14291        9.79859        8.25477
C         -4.45330        9.90531        7.99846
C         -3.49689        9.94859        9.09071
O         -2.28326       10.03002        8.96291
O         -4.08151        9.90125       10.31741
C         -4.15555        9.95520        6.65294
C         -5.32393        9.92259        5.84414
H          2.45457        9.61197      -11.01252
H         -0.93979        7.46441      -10.25137
H         -0.17953        8.41140       -7.77203
H          1.91679        9.97008       -6.99704
H          3.78294       10.80605       -9.28732
H          5.21776       11.49258       -7.44061
H          2.51331       12.08633       -6.11764
H          5.43076       12.85144       -5.37020
H          5.66843       14.14825       -3.13291
H          4.36049       14.47155       -0.98176
H          2.88870       13.98915        0.82935
H          1.15588       12.90543        2.32419
H         -0.91359       11.33882        2.14436
H         -3.28309        7.21318       -1.84179
H         -5.65109       10.60536       -2.20472
H         -8.17993       10.08182       -1.77743
H         -9.67311        9.42546        0.16387
H        -10.51664        9.14113        2.49496
H        -10.45902        9.63038        5.00113
H         -8.58863       10.28406        6.72932
H         -5.05373        9.83765       10.24102
H         -3.14368       10.02988        6.26894
H         -5.28626        9.99103        4.76146
