91

C         -8.12367       -1.16538       -6.26399
C         -6.88078       -0.76961       -5.72055
C         -6.61728        0.59690       -5.85500
C         -7.43576        1.50599       -6.53423
C         -8.67539        1.07471       -7.04138
C         -9.00818       -0.25788       -6.87656
N         -9.52655        1.92846       -7.65233
C         -9.11057        3.21019       -7.77079
C         -7.88667        3.62881       -7.29821
N         -7.04279        2.78909       -6.66310
C         -6.02444       -1.75407       -4.94509
C         -4.59735       -1.91187       -4.90640
C         -4.07694       -3.01244       -4.17033
C         -4.85311       -3.93871       -3.48521
C         -6.24090       -3.76175       -3.47048
C         -6.77549       -2.68685       -4.16558
N         -7.05602       -4.61005       -2.80948
C         -6.46281       -5.64143       -2.17205
C         -5.09676       -5.82111       -2.18984
N         -4.27118       -4.97278       -2.84101
C         -3.56389       -1.04365       -5.53014
O         -3.86836        0.27713       -5.56165
C         -2.88767        0.99739       -6.18551
C         -1.85688        0.11907       -6.44211
C         -2.25457       -1.18252       -5.99212
C         -1.36696       -2.36729       -6.04026
F         -1.98411       -3.46919       -6.52898
F         -0.27659       -2.14890       -6.82533
F         -0.88583       -2.68387       -4.81049
C         -2.99488        2.37178       -6.52047
C         -3.85388        3.17586       -5.87726
C         -4.12007        4.56699       -6.26410
C         -4.47334        5.48931       -5.26938
C         -4.77956        6.78248       -5.65219
C         -4.70788        7.18775       -6.98284
C         -4.43873        6.27237       -7.98468
C         -4.14536        4.95891       -7.61870
C         -5.03639        8.65774       -7.10037
C         -5.59893        8.93146       -5.68469
O         -6.23099        9.92285       -5.35038
N         -5.27899        7.83403       -4.87911
C         -5.58913        7.74572       -3.46792
C         -4.43608        8.22752       -2.60151
C         -3.87037        9.60664       -7.48942
C         -2.63606        8.86586       -8.06539
O         -2.56640        8.26974       -9.12809
N         -1.58327        9.02703       -7.17146
C         -1.90173        9.95563       -6.19383
C         -1.06850       10.47509       -5.22419
C         -1.56581       11.50397       -4.40560
C         -2.87193       11.98833       -4.63816
C         -3.69420       11.43960       -5.62489
C         -3.20821       10.38676       -6.37258
C         -0.73549       12.09886       -3.35641
C         -1.10169       12.62012       -2.17739
C          0.06843       13.07846       -1.50998
C          1.22769       12.80253       -2.36206
O          2.39563       13.04767       -2.14118
N          0.64211       12.20116       -3.47272
C         -0.33664       13.59032       -0.36456
O         -1.72592       13.52323       -0.15926
C         -2.24289       12.90263       -1.29741
O         -3.41532       12.65768       -1.50673
H         -8.46464       -2.19762       -6.18764
H         -5.76674        1.03980       -5.36774
H         -9.98037       -0.60208       -7.22296
H         -9.79496        3.89507       -8.25792
H         -7.54688        4.65211       -7.40750
H         -3.00550       -3.17475       -4.09504
H         -7.85860       -2.58444       -4.09056
H         -7.12236       -6.32100       -1.64505
H         -4.62465       -6.65243       -1.67912
H         -0.91069        0.38282       -6.89836
H         -2.39106        2.73844       -7.34403
H         -4.43454        2.81244       -5.03290
H         -4.52892        5.18045       -4.23178
H         -4.44780        6.55673       -9.03338
H         -3.95732        4.23325       -8.40750
H         -5.86672        8.76508       -7.80913
H         -5.85746        6.71681       -3.20706
H         -6.46914        8.36587       -3.26448
H         -3.51868        7.66750       -2.81001
H         -4.68019        8.10133       -1.54175
H         -4.22871        9.28806       -2.77867
H         -4.20326       10.32294       -8.25059
H         -0.66861        8.63359       -7.33782
H         -0.06122       10.08783       -5.10528
H         -3.27695       12.81095       -4.05073
H         -4.69520       11.83612       -5.77814
H          1.18636       11.91301       -4.27744
H          0.22749       14.04843        0.43021
