71

C         -5.28852       -4.20741        6.33136
C         -6.57683       -4.25780        5.79127
C         -7.60033       -4.78526        6.59720
C         -7.36888       -5.26135        7.88165
C         -6.05871       -5.20699        8.41140
C         -5.04281       -4.67934        7.62667
N         -5.78564       -5.65427        9.65360
C         -6.82734       -6.15386       10.35403
C         -8.10468       -6.20786        9.83668
N         -8.39612       -5.76253        8.59673
C         -6.84527       -3.76520        4.42613
S         -8.10053       -4.47154        3.48692
C         -7.83916       -3.41767        2.17439
C         -6.78275       -2.56733        2.40571
C         -6.20651       -2.77208        3.69960
C         -8.66024       -3.46025        1.00564
C         -9.44912       -3.58330        0.10855
C        -10.47093       -3.82114       -0.83770
C        -10.38626       -3.40535       -2.10932
C        -11.44807       -3.67028       -3.02001
S        -11.11092       -3.85983       -4.69584
C        -12.74728       -4.14826       -5.07465
C        -13.55381       -4.08451       -3.96380
C        -12.80711       -3.81082       -2.78340
C        -13.20737       -4.40968       -6.39456
C        -13.61356       -4.63551       -7.61277
C        -14.08709       -4.89877       -9.03293
C        -13.59375       -4.25902      -10.09666
C        -13.98986       -4.56269      -11.46733
C        -13.51911       -3.94026      -12.58069
O        -13.93490       -4.30948      -13.87024
C        -14.85283       -5.29294      -13.94092
C        -15.34989       -5.93190      -12.79450
C        -16.28914       -6.88924      -13.07667
S        -16.55157       -7.00077      -14.77587
C        -15.40016       -5.76360      -15.10517
O        -14.93165       -5.60645      -11.55434
C        -12.57918       -2.83449      -12.58114
C        -12.11309       -2.22444      -13.68198
C        -11.20442       -1.07552      -13.63340
C        -11.28391       -0.10701      -14.63267
C        -10.44046        1.00512      -14.59596
C         -9.50837        1.16930      -13.57862
C         -9.40688        0.17443      -12.57505
C        -10.24240       -0.92827      -12.62693
N         -8.52290        0.27576      -11.56465
C         -7.74649        1.37742      -11.56097
C         -7.84382        2.34906      -12.53459
N         -8.72084        2.26172      -13.55875
H         -4.45365       -3.81644        5.75438
H         -8.62429       -4.83214        6.23287
H         -4.03467       -4.63873        8.03316
H         -6.60350       -6.51220       11.35202
H         -8.93448       -6.61109       10.40527
H         -6.44268       -1.82458        1.69460
H         -5.37471       -2.19175        4.08033
H        -11.32885       -4.37790       -0.48141
H         -9.50247       -2.88081       -2.46589
H        -14.62772       -4.22419       -3.98797
H        -13.25493       -3.71321       -1.80154
H        -14.83016       -5.68658       -9.11698
H        -12.84589       -3.49438       -9.91958
H        -16.83391       -7.52037      -12.38916
H        -15.19477       -5.44939      -16.11867
H        -12.26389       -2.46319      -11.61171
H        -12.43177       -2.54066      -14.67195
H        -12.01015       -0.19624      -15.43769
H        -10.51724        1.76325      -15.36979
H        -10.12805       -1.68240      -11.85153
H         -7.03976        1.45645      -10.74273
H         -7.21585        3.23171      -12.52001
