72

C         -8.06285       -2.35096       -2.88515
C         -7.90035       -2.35701       -1.49950
C         -9.00037       -1.88928       -0.73320
C        -10.23420       -1.55089       -1.28055
C        -10.38825       -1.58493       -2.68235
C         -9.28578       -1.94393       -3.45625
N        -11.58616       -1.31850       -3.25609
C        -12.61467       -1.05973       -2.42183
C        -12.46255       -1.03334       -1.04889
N        -11.26934       -1.26104       -0.46137
C         -6.74548       -2.99649       -0.78067
C         -5.33197       -2.68274       -0.81686
C         -4.52271       -3.37238        0.11048
C         -4.99091       -4.39875        0.94143
C         -6.35450       -4.73932        0.91015
C         -7.18585       -4.03526        0.07888
N         -6.88466       -5.72964        1.65209
C         -6.01659       -6.42473        2.40621
C         -4.67228       -6.12197        2.43006
N         -4.14298       -5.09039        1.72879
C         -4.70244       -1.66217       -1.73463
C         -3.42737       -1.66660       -2.39236
C         -3.27988       -0.67838       -3.44130
C         -4.15262        0.37282       -3.70772
C         -5.30811        0.45859       -2.93611
C         -5.53106       -0.52480       -1.98636
N         -6.20218        1.45660       -3.09692
C         -5.90681        2.38578       -4.02776
C         -4.74782        2.32564       -4.77001
N         -3.85821        1.31610       -4.63160
C         -2.05907       -2.32570       -2.09020
C         -1.60195       -3.66420       -2.18029
C         -0.21190       -3.87972       -2.48106
C          0.76679       -2.90174       -2.48955
C          0.37217       -1.59720       -2.18486
C         -0.99249       -1.35520       -1.98131
N          1.27992       -0.59377       -2.14645
C          2.56665       -0.92477       -2.40605
C          2.94753       -2.21837       -2.68906
N          2.05262       -3.22683       -2.73244
C         -2.27783       -4.91015       -1.73625
C         -1.57992       -5.73415       -0.81194
C         -2.10271       -6.92667       -0.32303
C         -3.37748       -7.30464       -0.66625
C         -4.11460       -6.49997       -1.58497
C         -3.53486       -5.35221       -2.14374
N         -5.39498       -6.80064       -1.87072
C         -5.93051       -7.84581       -1.19849
C         -5.20092       -8.62861       -0.32700
N         -3.90449       -8.38702       -0.06187
H         -7.26737       -2.69821       -3.53993
H         -8.92530       -1.86442        0.35408
H         -9.40191       -1.95814       -4.53879
H        -13.58064       -0.88598       -2.88345
H        -13.29697       -0.84324       -0.38239
H         -3.46330       -3.14121        0.18128
H         -8.24101       -4.31358        0.09718
H         -6.43490       -7.24583        2.97517
H         -3.97239       -6.72473        2.99517
H         -2.36250       -0.66500       -4.03759
H         -6.43144       -0.37167       -1.39367
H         -6.63138        3.18175       -4.15439
H         -4.49849        3.09164       -5.49519
H          0.14794       -4.89929       -2.64514
H         -1.24988       -0.30379       -1.82219
H          3.28716       -0.11458       -2.38425
H          3.97978       -2.48316       -2.88869
H         -0.59826       -5.44335       -0.43385
H         -1.52935       -7.52392        0.38228
H         -4.11498       -4.76912       -2.85457
H         -6.98538       -8.02231       -1.36427
H         -5.64782       -9.45781        0.20796
