66

C         -3.03886        0.49411        0.42519
C         -2.54842       -0.52487        1.21692
C         -3.27671       -0.99278        2.37718
O         -4.38550       -0.56330        2.66972
O         -2.67484       -1.92241        3.16141
C         -1.32339       -0.86099        0.57497
N         -1.10406       -0.08075       -0.49164
O         -2.18500        0.76321       -0.58265
C         -0.34411       -1.93448        0.91888
O         -0.49348       -2.84336        1.95640
C          0.82900       -2.23612        0.29051
C          1.69417       -1.84175       -0.78186
O          1.57771       -0.91986       -1.56693
N          2.72910       -2.75388       -0.73405
C          2.61029       -3.69414        0.26427
O          3.37894       -4.60195        0.52143
C          1.38009       -3.35629        0.91694
C          0.55680       -3.76923        1.93291
C          0.63984       -4.87059        2.82874
C          1.21145       -6.02375        2.44748
C          1.33713       -7.19060        3.28284
C          0.85135       -8.38415        2.91764
C          2.10881       -7.08485        4.58811
C          2.77075       -6.99414        5.70777
C          3.54243       -6.88839        7.01304
C          4.44078       -7.78886        7.41762
C          5.11634       -7.65982        8.69951
C          5.96962       -8.54647        9.22992
C          6.48580       -8.48796       10.58021
C          6.95868       -9.66975       11.00800
C          6.84018      -10.72286       10.01070
S          6.49219      -10.00680        8.44087
C          6.80679      -12.05004       10.22925
C          6.87213      -12.71632       11.51488
C          6.38872      -13.96841       11.48706
C          5.93312      -14.37815       10.17272
S          6.43970      -13.22646        8.96660
C          5.17818      -15.46224        9.93405
C          4.69285      -15.79873        8.64901
S          5.52834      -16.81958        7.52425
C          4.25907      -16.73401        6.33347
C          3.27838      -15.95510        6.83632
C          3.51374      -15.44458        8.09337
O          2.53453      -14.66411        8.63704
C          1.61487      -14.71256        7.60196
N          0.39075      -13.99774        7.82430
O         -0.46728      -14.09596        6.93587
O          0.27621      -13.35101        8.87247
C          2.00462      -15.47646        6.49394
H         -3.93582        1.09898        0.45310
H         -1.80196       -2.23236        2.85709
H          3.50396       -2.73274       -1.37471
H          0.18818       -4.77151        3.81280
H          1.60356       -6.15823        1.44192
H          0.31040       -8.52010        1.98705
H          0.97582       -9.25857        3.54944
H          3.30392       -6.00994        7.60581
H          4.63950       -8.65844        6.79709
H          4.83340       -6.79759        9.30180
H          6.42534       -7.60022       11.19404
H          7.32801       -9.83798       12.00937
H          7.21268      -12.23071       12.41771
H          6.30183      -14.60122       12.35778
H          4.87566      -16.10176       10.75659
H          4.33444      -17.25971        5.39204
H          1.42419      -15.64911        5.59792
