105

C          8.49020      -26.39935      -11.93723
C          8.06061      -27.41563      -12.76442
C          8.81108      -28.50898      -13.42664
N          6.70198      -27.28394      -12.90038
C          6.24990      -26.20577      -12.17382
C          4.79645      -25.89521      -12.11718
C          7.35479      -25.62826      -11.57439
C          7.38573      -24.50271      -10.69711
C          6.52538      -23.47154      -10.70265
C          6.56713      -22.35464       -9.76663
N          5.60883      -21.42444       -9.90464
C          5.64599      -20.41092       -9.02500
C          6.59034      -20.30284       -8.03128
C          7.52745      -21.31514       -7.97013
N          7.52550      -22.34700       -8.83089
C          8.60755      -21.39750       -6.98116
C          8.88510      -20.48796       -6.03912
C          9.98079      -20.63561       -5.10158
C         10.57793      -19.61849       -4.46472
C         11.59292      -19.75693       -3.44858
C         11.85951      -18.60799       -2.80760
C         11.05742      -17.48880       -3.27366
S         10.21065      -17.93717       -4.74645
C         10.84205      -16.32717       -2.63056
C         11.37475      -15.94712       -1.33647
C         10.69697      -14.94256       -0.75823
C          9.59171      -14.46957       -1.56168
S          9.67460      -15.12173       -3.17223
C          8.59086      -13.70207       -1.09511
C          7.38650      -13.35739       -1.85681
C          6.25475      -14.18509       -1.77318
C          5.13671      -13.85640       -2.52920
C          5.13620      -12.71078       -3.35056
C          6.24946      -11.89070       -3.43504
C          7.38153      -12.22182       -2.68704
C          3.87219      -12.61820       -4.04116
C          3.04954      -13.70109       -3.66936
C          3.78140      -14.57119       -2.63230
C          3.05164      -14.56457       -1.25800
C          2.91869      -13.19955       -0.57927
C          3.92139      -16.03440       -3.13681
C          4.70120      -16.21305       -4.44005
C          1.80851      -13.89107       -4.27362
C          1.38136      -12.98467       -5.26274
C          2.20890      -11.88545       -5.58167
C          3.44918      -11.69730       -4.97511
C          0.10650      -13.23320       -5.96756
C         -0.44792      -12.41809       -6.88265
C         -1.66684      -12.62470       -7.60243
C         -2.83269      -13.17565       -7.09199
C         -3.20122      -13.72346       -5.76120
N         -3.77581      -13.11720       -8.08836
C         -3.26923      -12.50025       -9.20423
C         -4.11741      -12.28147      -10.40589
C         -1.94528      -12.19309       -8.94123
C         -1.10095      -11.53023       -9.89157
C          0.22546      -11.67535      -10.01582
H          9.51435      -26.23122      -11.62904
H          9.79065      -28.15639      -13.76430
H          8.27110      -28.88917      -14.29998
H          8.96434      -29.33924      -12.73001
H          6.11196      -27.90280      -13.43947
H          4.21711      -26.56304      -12.76171
H          4.59651      -24.87607      -12.45754
H          4.42403      -26.00522      -11.09354
H          8.19932      -24.49303       -9.97277
H          5.72595      -23.40052      -11.42496
H          4.86661      -19.66360       -9.14387
H          6.57301      -19.46324       -7.35173
H          9.23574      -22.27976       -7.08399
H          8.28096      -19.58999       -5.94261
H         10.29084      -21.65557       -4.88404
H         12.04921      -20.70628       -3.20491
H         12.55697      -18.53600       -1.98628
H         12.19406      -16.46176       -0.85726
H         10.90694      -14.56076        0.22939
H          8.59220      -13.35957       -0.06544
H          6.25577      -15.06819       -1.14312
H          6.25576      -11.01764       -4.07776
H          8.26697      -11.59847       -2.76879
H          3.58550      -15.22556       -0.56158
H          2.04445      -14.98653       -1.37028
H          3.89341      -12.73577       -0.39906
H          2.43400      -13.31368        0.39614
H          2.31164      -12.51106       -1.17385
H          2.92207      -16.46718       -3.27940
H          4.41070      -16.64788       -2.36905
H          4.33068      -15.56264       -5.23740
H          4.60894      -17.24647       -4.79048
H          5.76665      -16.01021       -4.29496
H          1.19739      -14.74862       -4.00313
H          1.91622      -11.15721       -6.33186
H          4.07196      -10.85763       -5.26421
H         -0.38465      -14.17222       -5.72529
H          0.06134      -11.50104       -7.15606
H         -2.43733      -13.54011       -5.00268
H         -3.36367      -14.80371       -5.83013
H         -4.12385      -13.25668       -5.40086
H         -4.72793      -13.44571       -7.99459
H         -5.12533      -12.68676      -10.26595
H         -3.67746      -12.76981      -11.28060
H         -4.21442      -11.21126      -10.61612
H         -1.59246      -10.86504      -10.59897
H          0.79551      -12.34858       -9.38517
H          0.77183      -11.12980      -10.77805
