118

C          5.43881        1.58730       -1.85605
S          5.33794        2.71176       -0.58943
C          4.07979        3.61715       -1.36031
C          3.72960        3.01716       -2.56903
C          4.53266        1.84907       -2.85493
C          4.36704        1.03176       -4.09710
C          2.93731        1.13354       -4.62043
C          2.50353        2.59851       -4.78359
O          1.20520        2.70176       -5.39677
C          0.12631        2.10395       -4.69162
C          2.62743        3.45825       -3.49719
C          3.49414        4.77481       -0.69190
N          2.22948        5.16579       -0.86727
C          1.91579        6.08924        0.10518
C          2.94280        6.39964        0.97522
S          4.37534        5.67502        0.53627
C          2.43960        7.05817        2.19266
C          1.04347        6.32546        2.24034
C          0.53506        6.46760        0.73588
C         -0.60732        5.50712        0.34549
C         -0.28921        4.01405        0.34040
C          0.17539        7.93202        0.31507
C         -0.98573        8.60650        1.04157
N          0.28626        6.71001        3.48319
C          1.29365        7.29307        4.43291
S          2.96622        6.80923        3.84979
C         -0.47008        5.69597        4.08164
S          0.06693        4.06719        4.17639
C         -1.40762        3.41061        4.73949
C         -2.25287        4.47568        5.06633
C         -1.63592        5.79096        4.83021
C         -2.30529        7.06480        5.28276
C         -3.49060        6.80295        6.22508
C         -4.40842        5.72059        5.65249
O         -4.83829        6.01256        4.31397
C         -5.66235        7.15986        4.19598
C         -3.65502        4.37943        5.63805
C         -1.57366        1.94341        4.86843
S         -3.00631        1.27187        5.53820
C         -2.52241       -0.35900        5.41396
C         -1.20671       -0.41256        4.96277
C         -0.70196        0.89646        4.53986
C          0.67158        1.01762        3.89979
C          1.32633       -0.32109        3.54681
C          1.16060       -1.32432        4.68448
O          1.77700       -0.75239        5.84848
C          1.72188       -1.55605        7.01535
C         -0.33711       -1.64683        4.84064
C         -3.42977       -1.43698        5.82923
S         -2.83931       -2.73965        6.77948
C         -4.32822       -3.58370        6.81328
C         -5.29993       -2.86741        6.13097
C         -4.80124       -1.60037        5.60996
C         -5.72608       -0.66931        4.85990
C         -7.22022       -0.96886        5.07769
C         -7.75716       -0.37947        6.38513
F         -6.83262        0.31138        7.07929
F         -8.76786        0.48307        6.10997
F         -8.27520       -1.31555        7.21158
C         -7.49715       -2.47140        4.92727
C         -6.72406       -3.31769        5.93753
C         -4.34981       -4.84472        7.48344
C         -5.42170       -5.32602        8.13139
H          6.15368        0.77686       -1.80500
H          4.60570       -0.01870       -3.89871
H          5.07408        1.38799       -4.85614
H          2.27063        0.60740       -3.92541
H          2.85313        0.60680       -5.58105
H          3.18716        3.04117       -5.52050
H         -0.77799        2.23226       -5.28972
H         -0.04156        2.58467       -3.72516
H          0.27820        1.02886       -4.55701
H          1.69101        3.45906       -2.93928
H          2.80322        4.50005       -3.80077
H          2.34838        8.13622        2.03151
H          1.28631        5.25758        2.33723
H         -1.45990        5.68259        1.01301
H         -0.95758        5.75745       -0.66505
H         -1.19902        3.43654        0.53365
H          0.45650        3.72478        1.08093
H          0.07886        3.70417       -0.64373
H          1.04489        8.59187        0.41471
H         -0.05088        7.94776       -0.75995
H         -1.01833        9.66471        0.76769
H         -0.88320        8.56491        2.12689
H         -1.94849        8.16776        0.75896
H          1.14591        7.00833        5.47662
H          1.23196        8.38673        4.36625
H         -2.64591        7.62655        4.40341
H         -1.58376        7.69709        5.81439
H         -4.04371        7.73261        6.39110
H         -3.13178        6.48075        7.21233
H         -5.30124        5.60152        6.27701
H         -5.93978        7.26980        3.14679
H         -5.12336        8.06485        4.49116
H         -6.57000        7.04674        4.79472
H         -4.24394        3.68081        5.03304
H         -3.58386        4.00095        6.66343
H          1.33698        1.55046        4.58973
H          0.60072        1.59396        2.96983
H          2.38920       -0.14664        3.34619
H          0.88442       -0.72394        2.62683
H          1.70574       -2.24371        4.43625
H          2.39632       -1.11928        7.75972
H          2.04591       -2.57845        6.80885
H          0.71564       -1.54710        7.44192
H         -0.44792       -2.28427        5.71649
H         -0.67797       -2.21969        3.96954
H         -5.50001       -0.77076        3.78990
H         -5.54698        0.37520        5.12147
H         -7.76177       -0.46249        4.26652
H         -7.21439       -2.78172        3.91294
H         -8.57012       -2.67622        5.02486
H         -6.74573       -4.36278        5.60475
H         -7.23617       -3.28207        6.90429
H         -3.43586       -5.43333        7.49888
H         -6.35792       -4.79628        8.21593
H         -5.36676       -6.28951        8.62890
