82

C         -1.75938        0.65048        1.23575
S         -1.61499       -0.84468        0.40728
C         -2.14419       -1.76813        1.78102
C         -2.43331       -0.91761        2.83251
C         -2.21841        0.46167        2.51214
C         -2.47545        1.51993        3.37661
C         -2.95857        1.10692        4.64632
O         -3.33541        2.21847        5.36147
C         -3.30593        2.23991        6.77413
C         -3.10382       -0.28367        5.01305
O         -3.48840       -0.58849        6.30709
C         -2.95874       -1.82979        6.79468
C         -2.89780       -1.34783        4.08064
C         -2.24431       -3.18689        1.64935
C         -1.23315       -4.02917        1.91516
C         -1.28476       -5.46016        1.70187
C         -0.08890       -6.06436        1.79641
C          0.99916       -5.14377        2.08715
S          0.33947       -3.56136        2.50845
C          2.32103       -5.37364        1.93116
C          2.94022       -6.55686        1.36495
C          4.19111       -6.32828        0.91267
C          4.64282       -4.97584        1.14090
S          3.54880       -4.14032        2.21175
C          5.70155       -4.39536        0.54278
C          6.11416       -3.02704        0.70655
C          6.21187       -2.05851       -0.19987
C          6.57660       -0.84973        0.46148
C          6.73652       -1.14432        1.89504
O          7.02245       -0.38893        2.79710
N          6.43738       -2.50735        1.94970
C          6.60323        0.09188       -0.46683
O          6.26394       -0.38118       -1.76515
C          6.03467       -1.74759       -1.62122
O          5.73769       -2.53006       -2.50355
C          6.88397        1.49954       -0.33667
C          8.01729        2.03475        0.14469
C          8.27150        3.44755        0.30922
C          9.47556        3.72464        0.83716
C         10.28373        2.54670        1.11192
S          9.40559        1.09724        0.62207
C         11.52422        2.50095        1.63720
C         12.32791        3.61289        2.10989
C         13.56324        3.26680        2.50533
C         13.85261        1.85772        2.35604
S         12.42803        0.99639        1.82344
C         15.05474        1.29204        2.56815
C         15.29094       -0.07523        2.29229
S         15.20046       -1.37472        3.42657
C         15.27156       -2.60328        2.18039
C         15.41448       -1.97656        0.99124
C         15.48421       -0.60522        1.06853
O         15.61332        0.08535       -0.09618
C         15.53861       -0.96746       -0.98379
N         15.53507       -0.57917       -2.36268
O         15.36519       -1.48164       -3.18994
O         15.69578        0.62270       -2.62474
C         15.42717       -2.23665       -0.39495
H         -1.51456        1.57789        0.73612
H         -2.35208        2.56634        3.12816
H         -4.31013        2.07399        7.17430
H         -3.01451        3.25967        7.05754
H         -2.57337        1.56158        7.21408
H         -1.90591       -1.96754        6.51506
H         -3.56128       -2.67483        6.44151
H         -3.00895       -1.82506        7.88699
H         -3.08695       -2.38808        4.30119
H         -3.18363       -3.56978        1.26116
H         -2.20293       -5.97870        1.45862
H          0.05418       -7.12412        1.64536
H          2.43178       -7.49978        1.24369
H          4.78744       -7.06666        0.39733
H          6.26287       -4.95836       -0.19812
H          6.39579       -3.01815        2.82213
H          6.08422        2.15555       -0.67058
H          7.54929        4.20396        0.03191
H          9.82158        4.73284        1.01755
H         11.96165        4.62921        2.14852
H         14.29466        3.96787        2.88346
H         15.89811        1.89589        2.88537
H         15.16691       -3.65011        2.42969
H         15.31051       -3.17765       -0.91499
