89

C         -2.34648       -0.40339        0.52366
S         -1.77488       -1.79554       -0.30403
C         -2.41962       -2.88237        0.88575
C         -3.03554       -2.16718        1.89310
C         -3.02329       -0.75022        1.66342
C         -3.64430        0.18554        2.48723
C         -4.32451       -0.41965        3.57653
O         -4.96371        0.52428        4.35872
C         -6.15409        0.10907        5.01816
C         -4.29551       -1.84366        3.84483
O         -4.97289       -2.27788        4.96435
C         -4.50237       -3.46827        5.58247
C         -3.64970       -2.77418        2.99351
C         -2.29793       -4.28359        0.67120
C         -1.24330       -5.00550        1.07711
C         -1.04952       -6.39819        0.74653
C          0.21343       -6.81150        0.93481
C          1.09265       -5.76175        1.42359
S          0.12807       -4.38993        1.96541
C          2.43417       -5.73708        1.32652
C          3.26190       -6.74710        0.69200
C          4.47881       -6.29781        0.34939
C          4.70244       -4.91641        0.71809
S          3.42499       -4.34458        1.75978
C          5.69680       -4.15574        0.23780
C          5.90428       -2.75999        0.50102
C          5.93888       -1.74438       -0.36503
C          6.18209       -0.54054        0.35373
C          6.34268       -0.88665        1.77824
O          6.64187       -0.16521        2.70235
N          6.13416       -2.26928        1.77211
C          6.17686        0.42712       -0.54767
O          5.98265       -0.03027       -1.87803
C          5.81505       -1.40725       -1.77977
O          5.63613       -2.18221       -2.70115
C          6.38856        1.83870       -0.37329
C          5.68242        2.65731        0.42011
C          6.01993        4.03715        0.67957
C          5.36273        4.55222        1.72957
C          4.46053        3.60619        2.36470
S          4.26928        2.19097        1.33099
C          3.96570        3.68683        3.61366
C          4.25966        4.72092        4.58952
C          4.02652        4.33756        5.85446
C          3.50785        2.98861        5.95443
S          3.03141        2.40558        4.37564
C          3.46237        2.27263        7.08633
C          3.02972        0.91341        7.11567
S          4.18813       -0.33222        6.89372
C          3.00149       -1.54494        6.98502
C          1.73207       -1.05004        7.21757
C          1.75008        0.39967        7.31446
C          0.54422        1.26322        7.58273
C          0.32067        1.48052        9.07258
C          0.51965       -1.93202        7.36462
C          0.22400       -2.76058        6.12097
H         -2.16517        0.58027        0.11107
H         -3.65405        1.25412        2.31821
H         -6.73573        1.00575        5.25310
H         -5.91566       -0.37082        5.97176
H         -6.78000       -0.53025        4.38561
H         -3.42132       -3.43264        5.75148
H         -4.78690       -4.35158        5.00281
H         -4.99249       -3.54520        6.55788
H         -3.64222       -3.84078        3.15723
H         -3.08723       -4.75261        0.09024
H         -1.83213       -7.01677        0.32867
H          0.55438       -7.80591        0.68401
H          2.90807       -7.73767        0.44744
H          5.20656       -6.88467       -0.19393
H          6.38161       -4.58764       -0.49006
H          6.14233       -2.82455        2.61657
H          7.23731        2.23605       -0.92426
H          6.77636        4.57169        0.12184
H          5.53199        5.55160        2.10538
H          4.69641        5.67408        4.33076
H          4.25166        4.94194        6.72148
H          3.81628        2.69662        8.02095
H          3.29107       -2.57948        6.86299
H         -0.35088        0.81918        7.13402
H          0.66264        2.23832        7.09507
H          0.10096        0.53595        9.58119
H         -0.52195        2.15951        9.23553
H          1.20546        1.91805        9.54821
H         -0.36681       -1.33704        7.60416
H          0.67660       -2.60365        8.21748
H          0.09703       -2.12507        5.23842
H         -0.69541       -3.33792        6.26246
H          1.03252       -3.46977        5.91280
