86

C          2.44628      -11.46597       -5.26855
S          0.91436      -11.02836       -4.64489
C          1.43883      -11.17164       -2.99252
C          2.74746      -11.62731       -2.95283
C          3.33116      -11.72947       -4.25790
C          4.65724      -12.04912       -4.51972
C          5.42338      -12.25193       -3.34709
O          6.79407      -12.40280       -3.46482
C          7.24866      -13.09475       -4.62865
C          4.84328      -12.20268       -2.02075
O          5.52322      -12.39553       -0.83447
C          6.75727      -13.10017       -0.85939
C          3.46642      -11.89949       -1.78084
C          0.50736      -10.85823       -1.95514
C          0.35992       -9.63575       -1.41522
C         -0.54046       -9.33868       -0.31967
C         -0.36916       -8.11769        0.21422
C          0.70383       -7.35647       -0.40881
S          1.25924       -8.20791       -1.85983
C          1.29028       -6.23828        0.06780
C          0.92713       -5.48260        1.25620
C          1.86109       -4.59497        1.63749
C          3.06109       -4.63598        0.82138
S          2.76632       -5.55242       -0.62925
C          4.23075       -4.09175        1.19523
C          5.56422       -4.23127        0.60292
C          6.55641       -3.29833        0.68580
O          7.85431       -3.53824        0.21762
C          8.08596       -4.77414       -0.26532
C          7.07641       -5.74945       -0.34020
C          7.52430       -6.94075       -0.85054
S          9.20277       -6.84893       -1.23484
C          9.30406       -5.21173       -0.71454
O          5.81114       -5.51042        0.07130
C          6.38306       -1.96105        1.22635
C          7.32528       -1.02149        1.39715
C          7.13205        0.35323        1.85515
C          6.07148        0.96390        2.40468
C          5.99669        2.39461        2.66352
C          4.74757        2.83509        2.86236
C          3.74469        1.78274        2.79108
S          4.55192        0.22656        2.83292
C          2.41739        1.90945        2.60557
C          1.66990        3.14649        2.47582
C          0.44351        2.98039        1.96034
C          0.13161        1.60191        1.62930
S          1.33679        0.53486        2.29950
C         -0.90635        1.23580        0.86214
C         -1.14902       -0.08459        0.40719
S         -0.48825       -0.74955       -1.05747
C         -1.38519       -2.23761       -0.92526
C         -2.14966       -2.15198        0.18320
C         -2.01279       -0.98964        0.90978
O         -2.78146       -0.86857        2.03172
C         -3.44956       -2.07730        1.96466
N         -4.39704       -2.29467        3.00898
O         -5.44322       -2.88804        2.68671
O         -4.09664       -1.91944        4.14421
C         -3.12086       -2.89296        0.87819
H          2.62255      -11.50102       -6.33760
H          5.05480      -12.05921       -5.52229
H          6.84997      -14.11465       -4.65110
H          8.33998      -13.15363       -4.58422
H          7.01084      -12.56177       -5.55331
H          6.83535      -13.82504       -1.67322
H          6.82408      -13.68333        0.06413
H          7.59276      -12.39248       -0.87061
H          3.04500      -11.87619       -0.78411
H         -0.07806      -11.68926       -1.57487
H         -1.24791      -10.06532        0.05781
H         -0.92094       -7.77201        1.07754
H          0.00553       -5.63234        1.80139
H          1.77488       -3.96235        2.51190
H          4.22736       -3.52524        2.12624
H          6.97071       -7.85443       -1.01427
H         10.23695       -4.66803       -0.75919
H          5.35776       -1.73800        1.47226
H          8.34950       -1.24235        1.09612
H          8.01262        0.96426        1.65416
H          6.87326        3.02766        2.62416
H          4.50612        3.87686        3.00945
H          2.08111        4.11212        2.73501
H         -0.23662        3.79706        1.75383
H         -1.58194        1.99820        0.48602
H         -1.29417       -3.02503       -1.66368
H         -3.54421       -3.86114        0.64650
