83

C         -4.18196       -4.01804       -4.44965
S         -2.51220       -4.10731       -4.05001
C         -2.71848       -3.20231       -2.58692
C         -4.03280       -2.76510       -2.48435
C         -4.87294       -3.31404       -3.50354
C         -6.25289       -3.14093       -3.56128
C         -6.75310       -2.35326       -2.49383
O         -8.12025       -2.15294       -2.37502
C         -8.93656       -3.24104       -2.82588
C         -5.88786       -1.70163       -1.52356
O         -6.49068       -0.85783       -0.60675
C         -5.65512        0.19605       -0.10983
C         -4.48463       -1.92955       -1.46905
C         -1.61375       -2.99579       -1.71525
C         -1.23731       -3.87862       -0.75905
O         -0.14773       -3.61459        0.08778
C          0.53615       -2.48632       -0.16849
C          0.15134       -1.58175       -1.17112
C          1.00439       -0.51220       -1.28338
S          2.28835       -0.63896       -0.13879
C          1.68176       -2.11434        0.49405
O         -0.94298       -1.78454       -1.94298
C         -1.83984       -5.17904       -0.49039
C         -1.17710       -6.16891        0.12762
C         -1.72715       -7.46872        0.23999
O         -2.66636       -7.98382       -0.64779
C         -1.45706       -8.48376        1.11800
C         -0.66159       -8.80852        2.26256
O          0.12372       -8.09346        2.85547
N         -0.98882      -10.12145        2.54316
C         -1.91649      -10.66744        1.67446
O         -2.36273      -11.79782        1.68465
C         -2.21567       -9.60104        0.76911
C         -2.97195       -9.30365       -0.33079
C         -3.91525      -10.08209       -1.04505
C         -4.13143       -9.87221       -2.35313
C         -5.14989      -10.57253       -3.11299
C         -5.27931      -11.89807       -3.26750
C         -6.38716      -12.53776       -3.93959
C         -6.45475      -13.85773       -3.71118
C         -5.39466      -14.35115       -2.84836
S         -4.17905      -13.09158       -2.63223
C         -5.36803      -15.52470       -2.18973
C         -6.40529      -16.53838       -2.16563
C         -6.28669      -17.39894       -1.14019
C         -5.15171      -17.11516       -0.28100
S         -4.09230      -15.97323       -1.06872
C         -4.98434      -17.63403        0.94903
C         -3.97916      -17.25064        1.87888
S         -3.45160      -15.62252        2.22118
C         -2.29714      -16.11118        3.41745
C         -2.42869      -17.44234        3.58160
C         -3.34748      -18.05835        2.75877
O         -3.49622      -19.40819        2.90456
C         -2.55505      -19.61638        3.89399
N         -2.36409      -20.97844        4.25841
O         -1.22563      -21.43389        4.09065
O         -3.33155      -21.56999        4.75044
C         -1.88479      -18.47914        4.35042
H         -4.55625       -4.48996       -5.34928
H         -6.84972       -3.57190       -4.34795
H         -9.98905       -2.95476       -2.73560
H         -8.76821       -4.13232       -2.21043
H         -8.78836       -3.47706       -3.88448
H         -4.92352       -0.17707        0.61670
H         -6.28707        0.91863        0.41467
H         -5.14905        0.72828       -0.92478
H         -3.83115       -1.49566       -0.72582
H          0.95801        0.31764       -1.96994
H          2.18530       -2.63899        1.29427
H         -2.85118       -5.34522       -0.85669
H         -0.16501       -6.02677        0.50266
H         -0.57778      -10.63942        3.29727
H         -4.46347      -10.84326       -0.49672
H         -3.57531       -9.11076       -2.89817
H         -5.88663       -9.90971       -3.56257
H         -7.10943      -11.98676       -4.52572
H         -7.24053      -14.48891       -4.10009
H         -7.22610      -16.55975       -2.86803
H         -6.99952      -18.18443       -0.92953
H         -5.69144      -18.38589        1.29441
H         -1.65071      -15.39308        3.90091
H         -1.11932      -18.44011        5.11226
