82

C          8.95473       -4.77109        3.65726
O         10.04839       -5.10650        4.37140
C         10.32513       -4.08147        5.24792
C          9.29158       -3.17189        5.16596
C          8.49181       -3.53279        4.04032
C          7.43692       -2.81327        3.35238
O          6.64853       -3.39174        2.60504
C          7.41291       -1.30916        3.46368
C         11.55548       -4.10069        5.97928
O         12.09311       -5.34584        6.24157
C         13.38092       -5.19663        6.59018
C         13.69336       -3.86424        6.60827
N         15.02427       -3.39138        6.77560
O         15.92519       -4.03678        6.22097
O         15.17028       -2.36170        7.44863
C         12.47872       -3.12199        6.36622
N         12.45115       -1.74686        6.41443
C         11.41500       -0.82624        6.39532
C         10.80263       -0.24384        5.34246
C         11.09791       -0.65631        3.92443
C          9.88477        0.96962        5.46268
N          8.86249        0.77835        6.46905
C          8.12518        1.74961        7.11770
C          8.35085        3.05741        7.31896
C          7.59866        3.94002        8.22421
C          7.19131        3.66438        9.47911
C          6.60817        4.58136       10.44364
C          6.20689        3.99415       11.59144
C          6.31728        2.54845       11.55240
S          7.32351        2.09129       10.19208
C          5.83397        1.60826       12.38418
C          5.40620        1.71889       13.76091
C          5.43278        0.52650       14.39322
C          5.80641       -0.58553       13.52514
S          5.64710       -0.07653       11.88043
C          6.23920       -1.79623       13.91929
C          6.63115       -2.97409       13.13815
C          7.41439       -3.10812       12.04839
C          7.56333       -4.29673       11.17779
C          7.86489       -5.56099       11.55145
C          8.14981       -6.58574       10.59983
N          8.38495       -7.41068        9.82142
C          7.98515       -5.91666       12.91818
N          8.05218       -6.20481       14.04605
C          7.46500       -3.77698        9.78594
C          7.66114       -2.39708        9.83360
C          7.97532       -1.99000       11.22207
O          8.62378       -1.03560       11.58869
C          7.28649       -1.55072        8.79975
C          6.58488       -2.12034        7.71056
C          6.47213       -3.51641        7.63764
C          6.98013       -4.38102        8.63411
S          5.54798       -4.00408        6.26436
C          5.14795       -2.40754        5.89819
C          5.82599       -1.49023        6.65910
Br         3.87650       -1.95203        4.59855
H          8.66706       -5.46751        2.88116
H          9.18967       -2.29677        5.78427
H          8.01423       -0.88199        2.65845
H          7.80416       -0.97599        4.42479
H          6.39190       -0.93949        3.37293
H         13.94342       -6.10988        6.73741
H         13.21564       -1.34760        6.97779
H         11.25678       -0.39527        7.38708
H         11.92492       -1.36751        3.84924
H         11.35393        0.21592        3.31643
H         10.22017       -1.12617        3.47675
H          9.37410        1.14248        4.50821
H         10.49439        1.85427        5.67318
H          8.43543       -0.14197        6.47661
H          7.25493        1.30015        7.58855
H          9.19870        3.53380        6.83570
H          7.46692        4.95160        7.84476
H          6.52420        5.64262       10.25118
H          5.74388        4.52579       12.41090
H          5.21636        2.66165       14.25293
H          5.23566        0.39617       15.44794
H          6.26058       -1.98874       14.99261
H          6.16309       -3.87236       13.54386
H          7.34980       -0.47846        8.93780
H          6.80718       -5.44732        8.54657
H          5.71079       -0.41795        6.54854
