93

C          2.45516        1.99562       -3.16725
C          1.98858        2.19573       -4.44648
O          0.88446        2.82820       -4.86628
C          0.41346        3.87133       -4.01771
S          3.02561        1.46090       -5.58049
C          4.15360        0.94398       -4.38125
O          5.28417        0.27073       -4.66171
C          5.91540        0.54903       -5.90877
C          3.68404        1.27343       -3.11701
C          4.38575        0.97592       -1.89814
C          3.91839        1.25679       -0.66830
C          4.71015        1.03295        0.48216
O          6.09963        1.10738        0.48469
C          4.34876        0.75579        1.77125
C          3.21206        0.52864        2.61170
O          2.03487        0.56669        2.30850
N          3.75812        0.25510        3.85027
C          5.13440        0.28438        3.87951
O          5.85654        0.05534        4.83341
C          5.50665        0.61243        2.54128
C          6.60225        0.83848        1.75083
C          7.99008        0.83313        2.03362
C          8.48913        0.03525        2.99340
C          9.88364       -0.00291        3.35177
C         10.54032       -1.04252        3.90755
C          9.95637       -2.40495        4.18649
C         12.00956       -0.90511        4.23070
N         12.17063        0.10471        5.26024
C         13.37248        0.49606        5.79045
C         13.58522        1.38819        6.76753
C         14.91826        1.64371        7.27981
C         15.23391        2.09956        8.50147
C         16.59137        2.20234        8.98382
C         16.67561        2.49320       10.28843
C         15.38694        2.66494       10.93987
S         14.09159        2.51636        9.75380
C         15.19114        2.87325       12.25588
C         16.23387        2.94036       13.26223
C         15.77689        3.06103       14.51381
C         14.33584        3.09120       14.60227
S         13.60885        3.07044       13.01289
C         13.59265        3.10244       15.71848
C         14.09239        3.05077       17.07880
C         14.77054        2.04121       17.64943
C         15.37939        1.94709       18.99690
C         14.98740        2.59651       20.12169
C         15.58047        2.36146       21.39444
N         16.06967        2.17377       22.42868
C         13.90177        3.52881       20.14391
N         13.02874        4.28281       20.16570
C         16.38837        0.84208       18.92866
C         16.20625        0.14985       17.73098
C         15.17180        0.78862       16.91322
O         14.76553        0.34540       15.86053
C         16.93091       -0.97719       17.35539
C         17.91743       -1.44883       18.24717
C         18.14294       -0.73577       19.43437
C         17.40098        0.42306       19.78485
S         19.40527       -1.46343       20.36394
C         19.60717       -2.70451       19.23844
C         18.78083       -2.59401       18.15255
Br        20.84330       -4.09461       19.45780
H          1.93053        2.36073       -2.29675
H         -0.50131        4.27815       -4.45573
H          1.15578        4.67513       -3.96047
H          0.16640        3.50977       -3.01340
H          6.87607        0.02441       -5.92555
H          6.11861        1.62045       -6.01489
H          5.32477        0.17886       -6.75327
H          5.36560        0.50726       -1.99832
H          2.93478        1.68455       -0.51042
H          3.20932        0.02307        4.66037
H          8.62925        1.45696        1.41684
H          7.83309       -0.61548        3.56197
H         10.43585        0.91903        3.16629
H          8.88798       -2.38025        4.41554
H         10.44638       -2.86773        5.05078
H         10.11392       -3.06534        3.32595
H         12.55514       -0.61430        3.32445
H         12.43167       -1.85892        4.56657
H         11.35157        0.29882        5.83289
H         14.21443       -0.03787        5.35330
H         12.74969        1.92412        7.21089
H         15.73009        1.37358        6.60615
H         17.45215        2.01445        8.35673
H         17.61883        2.57129       10.80909
H         17.28725        2.87144       13.03585
H         16.42232        3.10083       15.37791
H         12.50815        3.16653       15.63814
H         13.85038        3.95937       17.62372
H         16.73177       -1.47495       16.40953
H         17.64745        0.93288       20.70893
H         18.77187       -3.29502       17.32613
