84

C          6.37504        2.61321       -3.04156
C          6.12901        2.86851       -1.75459
C          6.18941        1.89539       -0.70342
S          6.09304        0.21555       -0.97612
C          6.72596       -0.27071        0.52256
C          7.48668       -1.56202        0.72160
C          8.52642       -1.51398        1.76885
N          9.08860       -0.23634        2.14393
C          9.28327       -2.62254        2.26072
C          9.14972       -3.91308        1.78077
C          8.35987       -3.96652        0.64084
C          8.46422       -5.12273       -0.07750
S          8.01041       -4.77990       -1.64990
C          7.00171       -3.43521       -1.21352
C          6.16010       -3.03986       -2.38814
C          6.45630       -1.79748       -3.04047
N          7.77459       -1.23010       -2.95024
C          5.56252       -1.11766       -3.93279
C          4.32453       -1.60258       -4.32827
C          4.25508       -2.95699       -4.06577
C          3.36736       -3.66677       -4.82384
S          3.97889       -5.23023       -4.94994
C          4.81146       -5.13409       -3.40950
C          5.21724       -6.48811       -2.96262
C          6.55500       -6.97659       -3.11078
N          7.35092       -6.52927       -4.20619
C          7.07352       -8.10114       -2.38316
C          6.30870       -8.91710       -1.54400
C          4.95321       -8.66455       -1.71511
C          4.04554       -9.56117       -1.22267
S          2.47290       -9.16062       -1.71074
C          2.99442       -7.76149       -2.64188
C          1.92958       -7.25357       -3.46069
C          1.86294       -7.50267       -4.79316
C          0.74925       -7.16248       -5.64911
C          0.08275       -5.88739       -5.60898
C         -0.94629       -5.77963       -6.52625
C         -1.85381       -4.62355       -6.79695
F         -1.36250       -3.46583       -6.28104
F         -2.04419       -4.40163       -8.12380
F         -3.08238       -4.80253       -6.24604
S         -1.13516       -7.22774       -7.39773
C          0.20351       -7.99435       -6.62259
O          0.44486       -9.24218       -7.05477
C          1.69852       -9.83208       -6.77244
C          4.36519       -7.52434       -2.43827
C          5.14326       -3.76420       -3.17727
C          7.52388       -2.87656        0.01232
C          6.35451        0.78432        1.38539
C          6.24921        0.71782        2.79435
C          5.85045        1.96302        3.37110
N          5.53093        2.01369        4.81294
O          5.77983        1.00651        5.48897
O          5.01874        3.05280        5.26149
C          5.68464        3.18780        2.63910
C          5.85398        3.28095        1.25046
C          6.13565        2.04413        0.66236
H          6.33268        3.41739       -3.77420
H          6.64934        1.64667       -3.42853
H          5.90628        3.89953       -1.48287
H          9.61944       -0.29426        3.01068
H          9.71658        0.07262        1.39966
H         10.04482       -2.45833        3.02422
H          9.75672       -4.72881        2.15801
H          8.99637       -6.03415        0.16092
H          8.28938       -1.58367       -2.14891
H          7.71082       -0.21640       -2.88311
H          5.85191       -0.14775       -4.32722
H          3.66178       -1.04734       -4.97906
H          2.61825       -3.30720       -5.51590
H          7.09164       -5.60720       -4.54597
H          8.34891       -6.62147       -4.05169
H          8.13083       -8.34383       -2.48977
H          6.73297       -9.74143       -0.98547
H          4.22747      -10.46180       -0.65054
H          1.05205       -6.85074       -2.93980
H          2.72055       -7.95522       -5.26241
H          0.35699       -5.07420       -4.94642
H          2.52076       -9.20766       -7.13500
H          1.79524      -10.05530       -5.70633
H          1.74888      -10.78448       -7.31043
H          6.40287       -0.18215        3.37275
H          5.38824        4.10250        3.15678
H          5.70467        4.21420        0.72295
