94

C         -6.06539       -6.16558      -10.73682
S         -5.95192       -5.84943       -9.06167
C         -5.03396       -7.29255       -8.74239
C         -4.93411       -8.04072       -9.90852
C         -5.48626       -7.36504      -11.05251
C         -5.44870       -7.84446      -12.35923
C         -4.79243       -9.09797      -12.45881
C         -4.64893       -9.70529      -13.83558
C         -4.25598       -9.79968      -11.31363
O         -3.72445      -11.04118      -11.60450
C         -2.66019      -11.47779      -10.76660
C         -4.30478       -9.29507       -9.98951
C         -4.52278       -7.56807       -7.43340
C         -4.11022       -6.60317       -6.58629
C         -3.47664       -6.90336       -5.33390
S         -3.99663       -8.28441       -4.45228
C         -2.75690       -8.19521       -3.25824
C         -1.90726       -7.14132       -3.56479
C         -2.46898       -6.26718       -4.61534
C         -1.90990       -4.99609       -4.90045
C         -2.48483       -4.03541       -5.78204
N         -2.94286       -3.22019       -6.46908
C         -0.76197       -4.67211       -4.14238
C         -0.16972       -5.55555       -3.20337
C         -0.71302       -6.81608       -2.87576
C         -0.01100       -7.70338       -2.00817
N          0.60493       -8.41623       -1.32993
C         -2.77586       -9.12897       -2.17067
C         -3.92820       -9.58245       -1.65097
C         -4.03891      -10.45949       -0.50614
C         -5.04167      -11.35905       -0.34423
O         -5.22465      -12.06894        0.84847
C         -4.34852      -11.77760        1.83611
C         -3.29968      -10.85238        1.66270
C         -2.53331      -10.68757        2.78638
S         -3.10809      -11.68681        4.06531
C         -4.37929      -12.32402        3.09263
O         -3.10195      -10.19537        0.49940
C         -6.06738      -11.64966       -1.32541
C         -5.83539      -12.12844       -2.56413
C         -6.88835      -12.40071       -3.50474
S         -8.43194      -12.83421       -2.88198
C         -9.19243      -13.04686       -4.40615
C         -8.29457      -12.73943       -5.41868
C         -6.94082      -12.41680       -4.89735
C         -5.86165      -12.13419       -5.77628
C         -4.51856      -11.89601       -5.37914
N         -3.40330      -11.72399       -5.11513
C         -6.19184      -12.15122       -7.15247
C         -7.48754      -12.44391       -7.64443
C         -8.57944      -12.76298       -6.80937
C         -9.84830      -13.07548       -7.38183
N        -10.86965      -13.31681       -7.87673
C        -10.57069      -13.43928       -4.41166
C        -11.06962      -14.29175       -3.49934
C        -12.43728      -14.67632       -3.49097
S        -12.87185      -16.15470       -2.66956
C        -14.47790      -15.93272       -3.05193
C        -14.72381      -14.79179       -3.75136
C        -13.56233      -14.05045       -4.02622
C        -16.14164      -14.71484       -3.98004
O        -16.76839      -13.83637       -4.54171
C        -16.67954      -15.98177       -3.33471
C        -15.64611      -16.65992       -2.78794
C        -18.08297      -16.28937       -3.27577
C        -18.59232      -17.52187       -3.20153
H         -6.55444       -5.45495      -11.38848
H         -5.85339       -7.32018      -13.21543
H         -4.92753       -8.98896      -14.61641
H         -5.29294      -10.58400      -13.93198
H         -3.60721       -9.98836      -14.02042
H         -1.88346      -10.71121      -10.67613
H         -2.20941      -12.35857      -11.23476
H         -3.03249      -11.78306       -9.78403
H         -3.90741       -9.82373       -9.13704
H         -4.40124       -8.61691       -7.17890
H         -4.18696       -5.56575       -6.88880
H         -0.29059       -3.69745       -4.28874
H          0.74967       -5.23334       -2.70926
H         -1.84356       -9.45567       -1.72247
H         -4.88543       -9.28042       -2.07027
H         -1.67920      -10.04011        2.92666
H         -5.07071      -13.05110        3.49386
H         -7.07169      -11.45192       -0.95738
H         -4.80762      -12.32671       -2.85399
H         -5.41114      -11.93952       -7.88732
H         -7.63530      -12.43141       -8.72738
H        -11.21927      -13.04073       -5.18469
H        -10.43593      -14.72945       -2.73127
H        -13.54443      -13.11206       -4.56429
H        -15.69405      -17.58180       -2.22754
H        -18.75375      -15.43090       -3.31521
H        -17.96839      -18.41181       -3.18896
H        -19.66618      -17.67016       -3.16921
