122

C          2.27728       11.92936       -3.92843
S          3.61051       12.08280       -2.88673
C          2.90046       11.06493       -1.68505
C          1.64665       10.61584       -2.10384
C          1.26966       11.15707       -3.39112
C         -0.07374       10.90997       -4.04349
C         -0.91484       12.17226       -4.01804
C         -1.02085       13.03281       -5.04063
C         -0.82423        9.73819       -3.37126
C         -0.72918        9.77969       -1.84097
C          0.72326        9.68259       -1.36363
C          3.64947       10.86334       -0.48204
C          3.60089        9.71993        0.21095
N          4.20782        9.42300        1.41767
C          4.10848        8.25400        2.12491
S          3.70799        6.75231        1.35825
C          3.74297        5.90126        2.81112
N          3.43100        4.49723        2.83708
O          3.42325        3.96140        3.95663
O          3.18083        3.92575        1.77126
C          4.08098        6.69050        3.88349
C          4.29754        8.05785        3.49408
C          4.65607        9.10188        4.41869
C          4.35812        9.11665        5.73188
C          4.76741       10.16770        6.64754
C          6.02821       10.51027        6.95774
C          6.39442       11.59388        7.83826
C          7.71458       11.82474        7.88635
C          8.49663       10.92971        7.04874
S          7.44571        9.70263        6.34418
C          9.80835       11.02919        6.76159
C         10.71849       12.06675        7.21042
C         11.90461       12.05138        6.58398
C         12.02611       10.99178        5.60875
S         10.64671        9.93045        5.66675
C         13.05178       10.85689        4.75607
C         13.18128        9.78046        3.76667
C         13.84000        8.60327        4.13187
C         13.97764        7.59402        3.18884
C         13.42311        7.72543        1.89444
C         12.74685        8.88029        1.53537
C         12.63082        9.91217        2.47740
C         13.68448        6.51546        1.14224
C         14.40253        5.61878        1.95608
C         14.64645        6.22516        3.35036
C         13.97345        5.36808        4.45257
C         12.45587        5.21178        4.33459
C         16.18665        6.34423        3.54533
C         16.67593        6.89364        4.87992
C         14.83201        4.38492        1.47699
C         14.55106        4.02587        0.15414
C         13.79856        4.91856       -0.64377
C         13.36324        6.16264       -0.15591
C         15.06217        2.78270       -0.46213
C         15.81079        1.84825        0.15252
C         16.35042        0.69859       -0.50896
S         16.78831        0.75674       -2.16986
C         17.26977       -0.88639       -2.23078
C         17.08947       -1.48665       -0.99375
C         16.66815       -0.54821        0.03158
C         16.48657       -0.97409        1.48809
C         17.38971       -0.18343        2.41555
C         16.97632        0.51870        3.47977
C         16.77756       -2.47702        1.72460
C         16.42680       -3.35484        0.52570
C         17.26967       -2.94518       -0.68221
C         17.72648       -1.38224       -3.48661
C         18.65593       -2.33875       -3.59768
H          2.27412       12.44185       -4.88074
H          0.09814       10.62451       -5.09057
H         -1.46823       12.38606       -3.10606
H         -0.47817       12.88637       -5.96917
H         -1.63874       13.92161       -4.95527
H         -0.39626        8.78935       -3.72150
H         -1.87906        9.73279       -3.67386
H         -1.30503        8.95005       -1.41362
H         -1.18040       10.70377       -1.46095
H          1.07644        8.65556       -1.52310
H          0.75151        9.88048       -0.28679
H          4.28881       11.67177       -0.13820
H          2.99925        8.89936       -0.16954
H          4.64878       10.22649        1.85754
H          4.17103        6.31262        4.89446
H          5.22654        9.93748        4.01686
H          3.75365        8.33214        6.18043
H          3.94100       10.69023        7.12606
H          5.66266       12.17742        8.38013
H          8.15476       12.61683        8.47517
H         10.45488       12.80777        7.95119
H         12.69412       12.76746        6.76599
H         13.87532       11.56552        4.76213
H         14.21713        8.47744        5.14085
H         12.30415        8.99030        0.55096
H         12.09126       10.81707        2.20683
H         14.17208        5.80136        5.43942
H         14.41907        4.36502        4.45734
H         11.94323        6.16648        4.48944
H         12.09427        4.52052        5.10289
H         12.15564        4.81096        3.36233
H         16.61608        6.96499        2.74628
H         16.64325        5.35213        3.42979
H         16.36645        7.92832        5.03685
H         17.77107        6.88518        4.89937
H         16.33201        6.28688        5.72148
H         15.40138        3.73968        2.13502
H         13.55896        4.65811       -1.67303
H         12.80390        6.83122       -0.80145
H         14.81374        2.66984       -1.51517
H         16.03559        1.93748        1.20716
H         15.43304       -0.79553        1.74533
H         18.45537       -0.20888        2.18986
H         15.92791        0.57895        3.75409
H         17.69041        1.05358        4.09930
H         16.21757       -2.81925        2.60445
H         17.83904       -2.63609        1.96236
H         15.35785       -3.26257        0.29620
H         16.61846       -4.40677        0.76542
H         16.97231       -3.56074       -1.53833
H         18.32952       -3.14100       -0.47891
H         17.33428       -0.92792       -4.39431
H         19.13169       -2.80297       -2.74246
H         18.98540       -2.66426       -4.57967
