109

C        -12.18186        5.38750        1.08842
S        -11.57702        4.68705       -0.38949
C        -11.75930        3.19773        0.32442
C        -12.24529        3.29100        1.61209
N        -12.49872        4.55311        2.06985
C        -12.42973        1.92996        2.25047
C        -11.97260        1.06333        1.07965
C        -11.59282        1.83626       -0.00008
S        -11.10988        0.98458       -1.33260
C        -11.39055       -0.53738       -0.50972
C        -11.86033       -0.31660        0.78929
C        -11.20264       -1.79218       -1.17282
C        -10.32885       -1.95279       -2.17941
C        -10.13125       -3.19722       -2.90454
C         -9.27542       -3.37434       -3.92408
C         -9.04359       -4.63149       -4.59894
C         -8.01674       -4.60002       -5.46325
C         -7.36003       -3.30797       -5.54035
S         -8.26157       -2.12580       -4.59356
C         -6.18632       -3.02166       -6.13549
C         -5.29255       -3.94405       -6.81488
C         -4.04621       -3.46107       -6.96482
C         -3.88487       -2.13801       -6.40396
S         -5.43436       -1.43220       -6.04075
C         -2.71586       -1.54598       -6.12047
C         -2.59335       -0.27922       -5.41536
C         -2.10055        0.85127       -5.93530
C         -2.05661        2.12639       -5.26104
C         -1.77444        3.15182       -6.08198
C         -1.61824        2.74612       -7.46912
S         -1.51588        0.98714       -7.56593
C         -1.63500        3.53847       -8.55699
C         -1.77442        4.98046       -8.59186
C         -1.86340        5.48835       -9.83270
C         -1.79870        4.48861      -10.88064
S         -1.58873        2.89860      -10.19663
C         -1.90131        4.72834      -12.19698
C         -1.76794        3.73391      -13.25365
C         -2.64609        3.52797      -14.27261
O         -2.42920        2.54409      -15.25109
C         -1.33376        1.77543      -15.07850
C         -0.42046        1.99522      -14.03341
C          0.61037        1.09218      -14.01424
S          0.45872       -0.02704      -15.31372
C         -0.99422        0.71013      -15.87266
O         -0.57744        2.99751      -13.14587
C         -3.93868        4.18042      -14.39887
C         -4.60883        4.35999      -15.55175
C         -5.93560        4.97775      -15.64618
C         -6.73831        4.66220      -16.70252
C         -8.05887        5.26822      -16.82617
C         -9.05161        5.11435      -17.74310
C         -9.11506        4.23664      -18.97832
C        -10.27571        3.19921      -18.95316
N        -10.23631        2.27052      -17.82589
C         -9.22343        5.05551      -20.29698
N         -8.09965        5.95392      -20.56282
C        -10.11213        6.03074      -17.31008
C        -11.30831        6.32768      -17.83847
C        -12.24104        7.36381      -17.23411
C        -11.72932        7.96816      -15.93797
C        -10.52881        7.66921      -15.40225
C         -9.70302        6.71794      -16.08865
C         -8.47713        6.25604      -15.80191
C         -7.59910        6.58727      -14.71547
C         -6.39970        5.98465      -14.65918
C        -12.49016        8.45430      -18.24910
C        -13.53687        8.49349      -19.08595
H        -12.29064        6.46017        1.17846
H        -13.47727        1.74335        2.49973
H        -11.78043        1.80420        3.12057
H        -12.11164       -1.11798        1.47401
H        -11.79902       -2.63204       -0.82770
H         -9.70740       -1.11416       -2.48633
H        -10.72302       -4.04389       -2.56634
H         -9.63184       -5.51497       -4.39417
H         -7.68942       -5.46157       -6.02744
H         -5.58399       -4.93788       -7.11777
H         -3.22640       -4.01631       -7.39985
H         -1.77971       -2.03753       -6.37018
H         -3.02250       -0.26423       -4.41486
H         -2.26432        2.23525       -4.20486
H         -1.72413        4.17897       -5.75166
H         -1.79367        5.59206       -7.70099
H         -1.96758        6.54367      -10.04370
H         -2.06662        5.74693      -12.54423
H          1.42961        1.02660      -13.31384
H         -1.51556        0.32204      -16.73641
H         -4.38695        4.48769      -13.45765
H         -4.16149        4.03673      -16.49120
H         -6.43181        3.94948      -17.45845
H         -8.18281        3.65890      -19.04098
H        -10.24569        2.60753      -19.87647
H        -11.24963        3.69841      -18.94745
H         -9.34914        1.77023      -17.80935
H        -10.96660        1.56927      -17.93562
H        -10.14041        5.65237      -20.31157
H         -9.30566        4.36907      -21.14816
H         -7.86666        6.46521      -19.70967
H         -7.27143        5.41445      -20.80589
H        -11.66804        5.84387      -18.73657
H        -13.18506        6.85307      -17.00081
H        -12.37906        8.67787      -15.42650
H        -10.18947        8.12446      -14.47668
H         -7.90280        7.31107      -13.96771
H         -5.72674        6.24734      -13.84885
H        -11.74117        9.24244      -18.31370
H        -14.29294        7.71496      -19.09128
H        -13.63948        9.30133      -19.80394
