130

C         -6.45721       -4.27022        7.06521
S         -5.23155       -5.43385        6.64970
C         -5.89511       -5.48138        5.12724
C         -6.98142       -4.63936        5.00742
N         -7.32390       -3.93005        6.12305
C         -7.58723       -4.67868        3.62405
C         -6.64396       -5.69351        2.99491
C         -5.68782       -6.12867        3.89209
S         -4.62032       -7.23913        3.28350
C         -5.41941       -7.19600        1.72434
C         -6.49286       -6.30488        1.73411
C         -4.89971       -8.03025        0.69546
C         -5.40261       -8.03979       -0.54834
C         -4.87899       -8.90394       -1.61588
C         -5.76103       -9.34954       -2.60823
C         -5.28141      -10.18805       -3.60557
C         -3.91586      -10.54278       -3.65369
C         -3.02874      -10.08336       -2.69834
C         -3.51734       -9.26274       -1.68117
C         -3.67686      -11.37231       -4.80886
C         -4.88902      -11.55585       -5.49755
C         -6.03799      -10.81353       -4.78508
C         -6.68157       -9.74452       -5.70766
C         -5.75805       -8.62263       -6.18348
C         -7.07807      -11.87083       -4.30460
C         -8.31435      -11.34521       -3.57804
C         -4.94081      -12.33427       -6.64417
C         -3.75956      -12.91167       -7.13519
C         -2.54851      -12.71624       -6.43999
C         -2.50312      -11.94459       -5.27273
C         -3.76785      -13.75248       -8.34109
C         -4.60299      -13.53630       -9.36777
C         -4.59804      -14.33316      -10.57330
C         -4.44236      -13.83487      -11.80636
C         -4.37336      -14.63194      -13.00761
C         -3.91514      -13.95130      -14.07113
C         -3.57925      -12.56622      -13.77523
S         -4.16724      -12.14914      -12.16707
C         -2.82560      -11.74110      -14.52768
C         -2.17441      -12.07551      -15.78129
C         -1.19551      -11.22087      -16.11917
C         -1.01422      -10.14437      -15.16436
S         -2.32623      -10.12474      -14.01571
C          0.05907       -9.34059      -15.12914
C          0.34993       -8.32512      -14.10404
C         -0.04760       -6.99510      -14.28316
C          0.23618       -6.07732      -13.27640
C          0.91633       -6.46097      -12.09836
C          1.33322       -7.77001      -11.92757
C          1.04297       -8.70053      -12.93420
C          1.05196       -5.31214      -11.22519
C          0.46247       -4.19408      -11.84920
C         -0.09726       -4.58357      -13.22087
C         -1.62691       -4.31956      -13.29931
C         -2.49199       -5.05956      -12.27901
C          0.61698       -3.78965      -14.35106
C          2.12928       -3.99051      -14.45751
C          0.44017       -2.94876      -11.23462
C          1.00258       -2.81484       -9.95942
C          1.60354       -3.93301       -9.34523
C          1.62790       -5.18544       -9.97145
C          1.00526       -1.53411       -9.24080
C          0.03093       -0.61853       -9.35896
C          0.03436        0.55579       -8.55695
S         -1.30310        1.68900       -8.75269
C         -0.71767        2.52245       -7.44655
C          0.46354        1.99700       -6.97475
N          0.91124        0.87400       -7.60460
C          0.92939        2.68423       -5.71008
C         -0.24356        3.64300       -5.53055
C         -1.15046        3.53374       -6.56682
S         -2.50975        4.46781       -6.41377
C         -1.96392        5.05001       -4.86008
C         -0.70410        4.53804       -4.53867
C         -2.84437        5.89266       -4.12727
C         -2.39932        6.79742       -3.24747
H         -6.49832       -3.84860        8.06598
H         -7.51822       -3.70903        3.12480
H         -8.61449       -5.05057        3.64232
H         -7.12831       -6.11533        0.87914
H         -4.06841       -8.68382        0.95209
H         -6.25057       -7.42148       -0.82608
H         -6.80267       -9.04693       -2.59958
H         -1.97637      -10.34119       -2.73251
H         -2.81116       -8.89194       -0.94264
H         -7.51645       -9.26011       -5.18941
H         -7.10860      -10.23205       -6.59420
H         -5.32292       -8.07140       -5.34448
H         -6.33179       -7.90206       -6.77660
H         -4.94695       -9.00008       -6.81196
H         -6.58863      -12.60088       -3.64502
H         -7.43811      -12.44309       -5.17011
H         -8.06111      -10.86407       -2.63143
H         -8.98280      -12.17847       -3.33615
H         -8.88479      -10.64223       -4.19066
H         -5.89037      -12.49054       -7.14405
H         -1.62424      -13.15448       -6.81006
H         -1.56162      -11.79395       -4.75609
H         -3.02164      -14.54267       -8.38792
H         -5.29664      -12.69719       -9.35896
H         -4.69991      -15.40602      -10.42809
H         -4.63518      -15.68074      -13.02237
H         -3.76802      -14.40727      -15.03942
H         -2.40706      -12.96250      -16.35296
H         -0.56336      -11.34260      -16.98633
H          0.85044       -9.46247      -15.86395
H         -0.56999       -6.68500      -15.18248
H          1.86747       -8.07825      -11.03482
H          1.35879       -9.73329      -12.79729
H         -1.99182       -4.58617      -14.29963
H         -1.81855       -3.24458      -13.18114
H         -2.42690       -6.14437      -12.40429
H         -3.54208       -4.77825      -12.41426
H         -2.21616       -4.81013      -11.25024
H          0.42996       -2.71602      -14.21522
H          0.17755       -4.05580      -15.32118
H          2.63907       -3.81867      -13.50519
H          2.54649       -3.28568      -15.18441
H          2.37259       -4.99951      -14.80430
H         -0.00900       -2.10424      -11.74707
H          2.04631       -3.83622       -8.35542
H          2.08097       -6.03435       -9.47135
H          1.82801       -1.37331       -8.54573
H         -0.81529       -0.78290      -10.01783
H          1.86880        3.22009       -5.86673
H          1.00248        1.98029       -4.87710
H         -0.19392        4.74559       -3.60660
H         -3.91525        5.79736       -4.29691
H         -1.34587        6.96008       -3.05261
H         -3.10775        7.41678       -2.70491
