96

C         -0.61151        4.56546        3.74678
S         -0.06363        6.06783        3.19940
C          0.63358        5.37563        1.79126
C          1.36875        6.32328        0.88070
C          2.82060        6.48413        1.31142
C          0.42260        3.99831        1.71758
C         -0.33991        3.52501        2.87905
C         -0.78111        2.10627        3.14578
C         -1.48193        1.82136        4.46139
C          0.94628        3.20381        0.61135
C          0.83472        1.87751        0.44073
N          1.30458        1.01803       -0.53424
C          1.15286       -0.34529       -0.55615
S          1.04262       -1.16114       -2.08053
C          0.72460       -2.65802       -1.35404
N          0.44626       -3.83175       -2.13540
O          0.29351       -4.89264       -1.50257
O          0.36962       -3.71451       -3.36441
C          0.77115       -2.60131        0.01116
C          1.03679       -1.27862        0.47999
C          1.09568       -1.05583        1.89015
C          2.04498       -0.41693        2.58901
C          2.02973       -0.28918        4.03830
C          1.66373       -1.19771        4.95835
C          1.57665       -0.90632        6.36946
C          0.83967       -1.80531        7.04612
C          0.25384       -2.81857        6.18239
S          1.09065       -2.83143        4.65321
C         -0.89927       -3.45976        6.46075
C         -1.64811       -3.25559        7.67240
C         -2.93579       -3.58315        7.57846
C         -3.30494       -4.22536        6.34515
S         -1.86975       -4.41215        5.31965
C         -4.53097       -4.61383        5.93858
N         -5.82579       -4.56568        6.45510
C         -6.32028       -4.33146        7.70780
S         -5.52150       -4.92855        9.13744
C         -6.57711       -4.11012       10.14947
N         -6.29337       -4.00597       11.53833
O         -7.06585       -4.60719       12.30772
O         -5.34997       -3.28329       11.87074
C         -7.67950       -3.63569        9.51023
C         -7.54073       -3.74505        8.07653
C         -8.59938       -3.20328        7.26289
C         -8.69538       -3.03705        5.93814
C         -9.84720       -2.42619        5.33822
S         -9.54335       -1.39539        3.99964
C        -11.19401       -1.06144        3.72562
C        -11.64374       -0.18857        2.57493
C        -10.54494        0.34443        1.66343
C        -11.97997       -1.70042        4.66840
C        -11.22069       -2.51105        5.60062
C        -11.86349       -3.37848        6.66191
C        -12.21879       -2.62552        7.93916
C        -13.40687       -1.61881        4.65043
C        -14.12668       -0.71139        5.33380
H         -1.13215        4.51943        4.69301
H          0.88492        7.30995        0.89174
H          1.32033        5.98379       -0.15883
H          2.89278        6.85676        2.33984
H          3.33520        7.19791        0.66122
H          3.35307        5.52884        1.26553
H          0.10776        1.47847        3.14296
H         -1.44738        1.79335        2.33307
H         -0.79190        1.93916        5.30340
H         -1.83750        0.78377        4.46779
H         -2.34458        2.47334        4.61712
H          1.51970        3.73581       -0.14612
H          0.26434        1.30493        1.15058
H          1.57187        1.47830       -1.40059
H          0.62301       -3.46386        0.65915
H          0.29024       -1.54065        2.43379
H          2.84063        0.12071        2.07441
H          2.33370        0.69853        4.38449
H          1.99903       -0.01568        6.81865
H          0.62092       -1.70053        8.09705
H         -1.24314       -2.78357        8.55098
H         -3.62149       -3.34932        8.36754
H         -4.58954       -5.03681        4.93175
H         -6.51769       -4.72825        5.72751
H         -8.52067       -3.17426       10.01883
H         -9.43845       -2.83755        7.84700
H         -7.87498       -3.28511        5.27704
H        -12.20080        0.66642        2.98016
H        -12.34699       -0.76515        1.95908
H         -9.84474        0.98586        2.21010
H        -10.97847        0.94232        0.85831
H         -9.97547       -0.47175        1.19857
H        -11.19998       -4.21567        6.90699
H        -12.77107       -3.84264        6.25980
H        -11.42077       -1.95088        8.26313
H        -12.41419       -3.33611        8.74961
H        -13.12186       -2.02375        7.80624
H        -13.93467       -2.35325        4.04663
H        -13.65093        0.04018        5.95291
H        -15.20901       -0.71536        5.28548
