85

N          3.67446        1.63268       -0.60357
C          4.15872        1.65083        0.78637
C          5.29056        2.67181        0.96320
C          5.95757        2.46433        2.32059
N          7.04416        3.43970        2.52199
S          8.55198        2.75341        2.46823
N          8.03321        1.19831        2.28756
C          6.57958        1.04363        2.44464
C          6.05986        0.04609        1.40572
C          4.54669        0.18780        1.20457
N          4.07002       -0.70732        0.14052
S          3.46105        0.09572       -1.17398
C          3.95389       -2.04699        0.28744
O          4.32697       -2.59018        1.50687
C          3.54252       -3.08560       -0.49795
C          3.01314       -3.42368       -1.78359
O          2.72887       -2.69763       -2.71869
N          2.87633       -4.79828       -1.74883
C          3.27324       -5.37301       -0.56068
O          3.26039       -6.55307       -0.25558
C          3.69885       -4.26622        0.23191
C          4.16898       -3.97763        1.48337
C          4.42610       -4.84851        2.57303
C          4.37483       -4.38394        3.82868
C          4.53047       -5.23119        4.98994
C          4.42536       -4.84584        6.27858
C          4.14588       -3.44058        6.74740
C          4.61827       -5.85659        7.38677
N          3.40370       -5.94867        8.16633
C          2.34747       -6.79024        7.93975
C          1.22239       -6.84499        8.66444
C          0.17235       -7.81890        8.43286
C         -0.68856       -8.26246        9.36315
C         -1.64615       -9.32758        9.16590
C         -2.16279       -9.80299       10.30991
C         -1.65828       -9.13206       11.50040
S         -0.70176       -7.73036       11.02253
C         -1.78541       -9.52593       12.78194
C         -2.43616      -10.72509       13.27695
C         -2.17917      -10.98516       14.56963
C         -1.31632      -10.00668       15.19716
S         -1.04053       -8.65836       14.12558
C         -0.76976      -10.13287       16.41755
C          0.12301       -9.17568       16.95326
S          1.83833       -9.16732       16.69089
C          2.08382       -7.70833       17.61331
C          0.88238       -7.32409       18.09510
C         -0.18148       -8.11822       17.73198
O         -1.41494       -7.75252       18.18641
C         -1.05145       -6.62553       18.89536
N         -2.12574       -5.97097       19.56354
O         -1.96265       -5.74438       20.76963
O         -3.10730       -5.65348       18.88128
C          0.31254       -6.31657       18.89051
H          4.31700        2.13312       -1.21702
H          3.31445        1.96056        1.41742
H          4.88498        3.68882        0.88467
H          6.03268        2.57126        0.15895
H          5.21048        2.60393        3.11283
H          6.92017        3.91838        3.41309
H          8.53973        0.54703        2.88513
H          6.37629        0.67242        3.45823
H          6.32217       -0.97027        1.72303
H          6.56621        0.19312        0.44119
H          4.02656       -0.04520        2.14446
H          2.50640       -5.32597       -2.51771
H          4.59584       -5.90184        2.36452
H          4.16581       -3.33078        3.98683
H          4.73718       -6.28109        4.77857
H          3.95135       -2.73426        5.93882
H          5.00165       -3.06063        7.31443
H          3.26277       -3.41396        7.39356
H          5.44293       -5.53542        8.03357
H          4.89580       -6.84511        7.00052
H          3.25068       -5.21449        8.85089
H          2.51242       -7.48316        7.11653
H          1.11488       -6.17126        9.51165
H          0.14467       -8.25584        7.43685
H         -1.87710       -9.72428        8.18655
H         -2.86373      -10.62483       10.34719
H         -3.03638      -11.37183       12.65325
H         -2.54874      -11.85564       15.09483
H         -0.97694      -11.01095       17.02144
H          3.06574       -7.26918       17.72282
H          0.78565       -5.48214       19.38848
