107

C          1.91224       -9.43065        3.24997
C          3.19822       -9.20346        3.73280
C          4.05339      -10.30050        3.99115
C          5.37500      -10.03580        4.49015
N          6.43591       -9.80620        4.89679
C          3.60836      -11.62324        3.78187
C          4.43248      -12.75637        4.09324
N          5.06877      -13.68872        4.35672
C          2.31734      -11.85421        3.29937
C          1.50732      -10.75610        3.05141
C          0.10147      -10.82066        2.63644
O         -0.45107      -11.83256        2.26392
C         -0.43114       -9.42536        2.78711
C          0.75805       -8.53538        2.92278
C          0.84375       -7.21446        2.62970
C          2.08033       -6.50477        2.62468
N          3.10114       -5.95262        2.61863
C         -0.28882       -6.43793        2.23098
N         -1.20241       -5.80203        1.92370
C         -1.73961       -9.14383        2.90314
C         -2.79701      -10.08904        2.74938
S         -3.62774      -10.09964        1.25903
C         -4.91735      -11.07748        1.85311
C         -4.54668      -11.63789        3.07365
C         -3.35656      -11.00873        3.62369
C         -2.87867      -11.31233        5.01557
C         -3.41018      -12.65266        5.53284
C         -4.92371      -12.82952        5.31177
N         -5.71782      -11.86979        6.09372
C         -5.27435      -12.74685        3.80749
C         -6.11475      -11.26549        1.08582
C         -6.48679      -10.42916        0.10046
C         -7.69292      -10.59948       -0.67314
C         -7.74803      -10.66596       -2.01803
C         -6.53617      -10.62444       -2.91068
C         -9.07558      -10.79464       -2.72400
N         -9.35648      -12.20209       -2.92341
C        -10.48292      -12.72091       -3.50687
C        -10.79010      -14.01616       -3.65620
C        -12.00507      -14.45840       -4.31270
C        -12.96087      -15.22635       -3.76691
C        -14.18190      -15.61416       -4.43504
C        -15.06709      -16.22699       -3.63423
C        -14.61470      -16.35760       -2.25874
S        -12.93422      -15.82449       -2.12910
C        -15.35581      -16.74085       -1.20071
C        -16.75662      -17.12356       -1.20317
C        -17.29428      -17.22748        0.02267
C        -16.36393      -16.91925        1.08419
S        -14.74750      -16.73540        0.45210
C        -16.69684      -16.75267        2.37433
C        -15.79331      -16.32984        3.42941
C        -15.13497      -15.16191        3.49549
C        -13.97412      -15.03398        4.44206
O        -13.72438      -15.71697        5.41304
C        -13.15097      -13.92922        3.90848
C        -11.94106      -13.47242        4.40579
C        -11.30598      -12.41796        3.73221
C        -11.86003      -11.92516        2.51310
C        -11.21293      -10.88947        1.83108
C        -10.07656      -10.30481        2.37525
C         -9.53766      -10.75591        3.57174
C        -10.14069      -11.82157        4.24225
F         -9.50188       -9.27611        1.73921
C        -13.07138      -12.43893        2.02292
C        -13.75896      -13.38272        2.76979
C        -15.12017      -13.96368        2.64329
C        -16.18674      -13.31798        2.11034
C        -17.52540      -13.77097        2.29291
N        -18.62670      -14.10333        2.44940
C        -16.07516      -12.05417        1.45777
N        -15.98562      -11.01900        0.93934
H          3.56841       -8.20297        3.94560
H          1.93205      -12.86118        3.14780
H         -2.08646       -8.13190        3.08553
H         -3.20789      -10.50478        5.68180
H         -1.78389      -11.32811        5.04927
H         -3.16180      -12.75959        6.59624
H         -2.88671      -13.46607        5.01187
H         -5.20485      -13.82709        5.67288
H         -5.65154      -10.94399        5.67100
H         -5.34269      -11.79059        7.03779
H         -6.36043      -12.66392        3.68058
H         -4.97761      -13.69549        3.33858
H         -6.75667      -12.10594        1.33760
H         -5.89660       -9.55507       -0.16644
H         -8.61496      -10.65125       -0.09980
H         -5.65973      -11.07928       -2.43775
H         -6.29542       -9.59040       -3.17742
H         -6.71554      -11.18062       -3.83708
H         -9.04730      -10.26819       -3.68521
H         -9.87462      -10.33326       -2.13044
H         -8.67026      -12.86436       -2.57181
H        -11.17156      -11.95339       -3.85706
H        -10.12540      -14.78795       -3.27674
H        -12.13302      -14.09069       -5.32904
H        -14.36527      -15.40006       -5.47897
H        -16.04012      -16.55393       -3.97130
H        -17.32573      -17.28357       -2.10822
H        -18.33146      -17.47168        0.21096
H        -17.72439      -16.92422        2.69285
H        -15.59817      -17.09527        4.18173
H        -11.52230      -13.91098        5.30759
H        -11.59971      -10.50226        0.89182
H         -8.65562      -10.27122        3.97845
H         -9.70882      -12.16010        5.18237
H        -13.46573      -12.06267        1.08342
