84

C         -0.01930        0.77432        2.05225
F         -1.01944        1.60499        1.72653
C          1.12918        1.24767        2.68069
C          1.23583        2.66910        3.05335
O          0.26297        3.35461        3.30879
O          2.49411        3.16286        3.06599
C          2.14469        0.34828        2.96610
F          3.27957        0.77114        3.54388
C          2.01960       -1.00013        2.63706
F          3.06434       -1.79575        2.91144
C          0.86668       -1.50598        2.01623
C         -0.14363       -0.57913        1.71883
F         -1.26628       -0.97756        1.10117
C          0.71375       -2.93505        1.68273
S          1.40072       -4.13880        2.74284
C          0.86937       -5.36816        1.75925
C          0.15233       -4.94650        0.68132
C          0.03798       -3.54034        0.62099
C         -0.25903       -6.12013       -0.04936
O         -0.92657       -6.18403       -1.06475
C          0.34709       -7.27074        0.74084
C          0.98768       -6.76126        1.81535
C          0.16830       -8.65727        0.40153
C          1.04912       -9.61512        0.73016
C          0.80481      -10.97171        0.40192
S         -0.01465      -11.96663        1.52134
C          0.12871      -13.36686        0.53406
C          0.75092      -13.05762       -0.66971
C          1.17744      -11.67825       -0.72639
C          1.90873      -11.10261       -1.91091
C          2.41974      -12.18435       -2.86690
C          1.33391      -13.23752       -3.10370
N          1.78144      -14.24708       -4.12598
O          0.89431      -14.75572       -4.82253
O          2.98552      -14.52658       -4.18507
C          1.01591      -13.99998       -1.81914
C         -0.38495      -14.58839        1.05844
C          0.17294      -15.76761        0.75092
C         -0.28125      -16.98777        1.31288
S          0.87483      -18.28554        1.44983
C         -0.26178      -19.25558        2.17265
C         -1.49315      -18.68330        2.29312
C         -1.53221      -17.36949        1.79445
C         -2.36170      -19.64700        2.91939
O         -3.54339      -19.54354        3.18052
C         -1.44573      -20.83167        3.18182
C         -0.21862      -20.54731        2.69045
C         -1.87267      -22.04634        3.80974
C         -1.05188      -22.81617        4.54454
C         -1.53145      -23.98183        5.19133
C         -2.54719      -24.84423        4.83248
C         -2.86907      -25.79424        5.85114
C         -2.01028      -25.67911        6.93819
S         -0.80724      -24.48692        6.66492
C         -2.18782      -26.46160        8.07909
C         -3.27685      -27.34072        8.18880
C         -4.12247      -27.47437        7.08921
C         -3.90389      -26.73816        5.92345
S         -5.39670      -28.58697        7.40025
C         -4.87622      -28.84024        9.00374
C         -3.72319      -28.14628        9.28713
H          3.22767        2.53143        2.92583
H         -0.49647       -3.00255       -0.15387
H          1.49662       -7.30916        2.59505
H         -0.74252       -8.90004       -0.14524
H          1.97001       -9.39343        1.26190
H          2.75752      -10.49705       -1.57189
H          1.22406      -10.43737       -2.45093
H          3.31222      -12.65259       -2.42802
H          2.73669      -11.72283       -3.80923
H          0.43282      -12.76224       -3.51212
H          1.86410      -14.64264       -1.54853
H          0.14726      -14.65077       -1.97991
H         -1.19683      -14.53476        1.78097
H          1.04206      -15.82523        0.10592
H         -2.40930      -16.73553        1.79056
H          0.65268      -21.18859        2.70371
H         -2.92845      -22.28527        3.69386
H         -0.01746      -22.52542        4.71426
H         -3.10737      -24.74888        3.91169
H         -1.50233      -26.35274        8.91748
H         -4.57780      -26.85408        5.07754
H         -5.43731      -29.48901        9.66147
H         -3.23300      -28.18194       10.25177
