87

C         -0.29663       -8.09980       -0.68992
C          0.22119       -8.26495       -1.95720
C          0.49614       -7.16478       -2.86521
N          0.97733       -7.46389       -4.09716
C          1.09202       -8.77865       -4.42716
C          0.77939       -9.79856       -3.55717
N          0.38221       -9.54928       -2.29989
C          0.22030       -5.80363       -2.51290
C         -0.54512       -5.65968       -1.31105
C         -0.78535       -6.82145       -0.39431
N         -1.52505       -6.51858        0.68170
S         -1.99349       -4.93881        0.49666
N         -1.16733       -4.54451       -0.88514
N          0.64394       -4.71213       -3.34631
C          1.06518       -3.47376       -2.92028
S          1.91173       -3.27699       -1.40188
C          2.14653       -1.63033       -1.65295
N          2.79932       -0.84968       -0.65410
O          3.84450       -0.28123       -0.99501
O          2.24191       -0.76006        0.44672
C          1.68126       -1.18277       -2.85850
C          0.99742       -2.23153       -3.56639
C          0.28902       -1.93542       -4.78287
C         -0.98630       -1.49964       -4.78327
C         -1.67275       -1.11681       -5.98176
O         -0.97987       -1.07163       -7.18022
C         -1.82908       -0.78665       -8.18294
C         -3.09676       -0.60327       -7.69515
N         -4.21418       -0.33833       -8.55345
O         -4.00675       -0.34553       -9.76862
O         -5.30736       -0.13416       -8.00669
C         -3.01400       -0.75701       -6.26469
N         -4.09380       -0.60778       -5.42344
C         -4.17589       -0.71897       -4.05081
C         -5.20933       -0.66945       -3.20128
C         -6.60201       -0.51917       -3.51586
C         -7.40042       -0.96001       -2.53170
C         -6.68544       -1.42149       -1.34726
S         -4.98634       -0.98001       -1.48750
C         -7.19612       -2.15247       -0.33676
C         -8.53074       -2.72052       -0.30706
C         -8.76052       -3.52436        0.73949
C         -7.64304       -3.62552        1.64966
S         -6.29574       -2.65884        1.09649
C         -7.66891       -4.34387        2.78327
C         -6.57948       -4.47611        3.72630
C         -6.61559       -4.26084        5.04834
C         -5.45605       -4.77012        5.86189
O         -4.34438       -5.07151        5.48103
C         -5.96680       -4.91191        7.23375
C         -5.29492       -5.49609        8.29841
C         -5.97527       -5.63214        9.51447
C         -7.32947       -5.19668        9.61156
C         -8.00986       -5.34834       10.82590
C         -7.36617       -5.91106       11.92100
C         -6.04710       -6.33606       11.83988
C         -5.35122       -6.20046       10.63790
F         -8.03184       -6.04285       13.07548
C         -7.97645       -4.61556        8.50199
C         -7.28567       -4.43669        7.31134
C         -7.64633       -3.81920        5.99913
C         -8.58401       -2.85056        5.83177
C         -8.71704       -2.07372        4.63493
N         -8.88016       -1.39534        3.72018
C         -9.46581       -2.44369        6.87689
N        -10.19462       -2.12067        7.72041
H         -0.44846       -8.93808       -0.01953
H          1.43152       -8.99697       -5.43368
H          0.81943      -10.84481       -3.84248
H          0.47841       -4.89663       -4.33283
H          1.76883       -0.15303       -3.19047
H          0.85959       -1.96647       -5.70870
H         -1.48091       -1.45130       -3.82559
H         -1.40006       -0.76798       -9.17519
H         -4.99926       -0.37687       -5.84596
H         -3.23187       -0.93515       -3.58608
H         -6.95523       -0.14235       -4.46419
H         -8.47719       -0.97872       -2.61270
H         -9.25738       -2.56022       -1.09009
H         -9.69015       -4.05415        0.89259
H         -8.56428       -4.91444        3.02488
H         -5.66507       -4.88396        3.28712
H         -4.27233       -5.84385        8.17226
H         -9.04135       -5.02559       10.94067
H         -5.56905       -6.76881       12.71318
H         -4.31781       -6.53924       10.58823
H         -9.01688       -4.32431        8.60627
