94

C         -3.53547      -13.13753        3.14708
C         -3.87838      -13.61207        4.41386
F         -3.94166      -14.93593        4.61254
C         -4.12107      -12.73431        5.47868
F         -4.45043      -13.22560        6.68074
C         -3.97540      -11.35871        5.32397
C         -3.59861      -10.90473        4.07034
C         -3.43449      -11.76443        2.96950
C         -3.03218      -10.94029        1.80651
C         -3.31868      -11.20711        0.51242
C         -4.02070      -12.38006        0.11540
N         -4.59983      -13.33720       -0.18981
C         -2.97291      -10.29908       -0.52585
N         -2.63579       -9.56678       -1.36043
C         -2.49143       -9.68877        2.35938
C         -3.13693       -9.54317        3.71534
O         -3.19807       -8.55489        4.41397
C         -1.42125       -8.91418        2.08378
C         -0.32347       -9.11733        1.09936
C          0.45131       -8.06168        0.54613
C          1.51153       -8.31728       -0.40180
N          2.31996       -7.31562       -0.81795
C          2.10766       -6.06239       -0.34908
C          1.03794       -5.79582        0.47550
N          0.21179       -6.78030        0.92663
C          0.72824       -4.45124        0.87428
N          0.50445       -3.34573        1.14756
C          3.09519       -5.08242       -0.71174
N          3.90593       -4.29569       -0.97686
C          1.77637       -9.59707       -0.91613
C          1.16894      -10.68390       -0.23710
C          0.11539      -10.44022        0.79585
N         -0.32197      -11.58563        1.35216
S          0.50705      -12.83501        0.67002
N          1.43511      -11.99257       -0.39016
C          2.71941       -9.80947       -2.03391
C          2.69422      -10.73796       -3.00207
C          1.75185      -11.80652       -3.23910
C          2.30682      -12.85615       -3.86441
C          3.70202      -12.62450       -4.19417
S          4.03120      -10.88815       -4.12218
C          4.67444      -13.55255       -4.23101
C          4.52071      -14.94863       -3.85539
C          5.61283      -15.42281       -3.23100
C          6.66751      -14.43155       -3.13655
S          6.38797      -13.14513       -4.27795
C          7.62346      -14.42068       -2.19699
C          8.53042      -13.29011       -1.93148
C          8.17686      -12.19887       -1.11657
C          9.08499      -11.10670       -0.87077
N          8.65205      -10.04558       -0.14801
C          7.38956      -10.05082        0.35659
C          6.55370      -11.12113        0.17503
N          6.94152      -12.19499       -0.55670
C          5.25400      -11.17433        0.76935
N          4.21929      -11.14753        1.29958
C          7.01346       -8.89450        1.11862
N          6.71363       -7.96975        1.74650
C         10.42168      -11.10514       -1.34269
C         10.79263      -12.18392       -2.20135
C          9.82181      -13.28985       -2.51321
N         10.32337      -14.20522       -3.35913
S         11.86577      -13.73071       -3.72628
N         11.97789      -12.35263       -2.81366
C         11.42131      -10.02311       -1.13495
C         11.60926       -9.19038       -0.09497
C         12.33275       -7.90048       -0.37169
O         13.17935       -7.67811       -1.20953
C         11.69916       -6.91090        0.52338
C         10.80930       -7.55601        1.40683
C          9.96190       -6.78482        2.18955
C         10.04638       -5.39274        2.08871
C         10.97211       -4.77705        1.23801
C         11.81767       -5.53299        0.43552
F         11.02424       -3.44047        1.16610
F          9.20314       -4.64069        2.80889
C         10.94950       -9.02234        1.20471
C         10.67827       -9.99637        2.10428
C         11.01082      -11.36042        1.85850
N         11.22997      -12.47822        1.63660
C         10.00538       -9.74347        3.33092
N          9.39759       -9.56129        4.30169
H         -3.31177      -13.85402        2.36383
H         -4.10038      -10.68614        6.16439
H         -1.24817       -8.04837        2.72991
H          3.53999       -9.09112       -2.05029
H          0.73824      -11.80386       -2.86720
H          1.79603      -13.79319       -4.03187
H          3.59279      -15.49648       -3.94320
H          5.67085      -16.39466       -2.76127
H          7.68281      -15.22622       -1.47191
H         12.03272       -9.84263       -2.02523
H          9.20191       -7.20023        2.84188
H         12.50144       -5.05793       -0.25874
