106

C          0.66745        2.57482        0.03301
N          0.96439        2.44011       -1.23385
C          1.88932        1.44803       -1.25820
C          2.17683        0.95916        0.01125
N          1.45871        1.81114        0.87301
C          1.45581        1.88635        2.28105
O          1.79107        0.92166        2.95651
N          1.05529        3.03612        2.97920
C          0.86210        4.33506        2.55302
C          0.40731        5.03396        3.64597
N          0.39655        4.24156        4.75448
C          0.83176        3.07270        4.34345
C          3.13716       -0.10652        0.33805
C          4.28540       -0.25826       -0.46809
C          5.19696       -1.27261       -0.20822
C          5.00558       -2.09951        0.91550
C          3.86599       -2.00427        1.69165
C          2.91344       -1.04049        1.36244
C          6.12466       -2.99375        1.05049
C          7.00431       -2.79828       -0.02858
C          6.43636       -1.72574       -1.00878
C          7.52824       -0.63941       -1.19877
C          7.25858        0.54013       -2.12244
C          6.01837       -2.51482       -2.28719
C          5.34872       -1.76310       -3.42939
C          8.18187       -3.53530       -0.12311
C          8.48293       -4.46041        0.88568
C          7.58011       -4.65263        1.95547
C          6.40094       -3.91431        2.04567
C          9.69738       -5.27694        0.76575
C         10.39550       -5.73428        1.81407
C         11.54921       -6.59574        1.70799
C         11.60052       -7.81434        1.14594
C         12.77773       -8.64403        1.18103
C         12.55679       -9.89670        0.76865
C         11.18206      -10.15700        0.36615
S         10.27248       -8.65016        0.36765
C         10.66611      -11.37029        0.08669
C         11.37178      -12.62698        0.25690
C         10.65866      -13.71075       -0.07048
C          9.34093      -13.40427       -0.57137
S          9.02255      -11.68150       -0.47722
C          8.45263      -14.26969       -1.08539
C          8.68975      -15.71579       -1.25066
C          8.35552      -16.69185       -0.30183
C          8.64958      -18.10513       -0.48321
N          8.43142      -18.94647        0.55588
C          7.84770      -18.44489        1.68946
C          7.48521      -17.12118        1.80326
N          7.75677      -16.24249        0.81593
C          6.80884      -16.58020        2.94957
N          6.25282      -16.15941        3.87047
C          7.68384      -19.36522        2.77421
N          7.56646      -20.08173        3.68008
C          9.19200      -18.60294       -1.69468
C          9.58425      -17.61331       -2.66217
C          9.34260      -16.15284       -2.42564
N          9.81266      -15.37104       -3.41273
S         10.49954      -16.36321       -4.53785
N         10.19521      -17.82924       -3.84235
C          9.47645      -20.02185       -2.04446
C         10.60914      -20.49473       -2.70771
N         10.49474      -21.79100       -3.09078
C          9.30382      -22.13891       -2.69079
N          8.67912      -21.17993       -1.90816
C          7.42719      -21.38073       -1.29816
O          6.68126      -20.43034       -1.09336
N          6.97506      -22.68977       -0.99957
C          5.65483      -23.08668       -0.86674
C          5.67385      -24.45571       -0.73143
N          6.96062      -24.90910       -0.67732
C          7.71040      -23.83357       -0.77417
H         -0.12678        3.21338        0.39287
H          2.30747        1.10784       -2.19888
H          1.06770        4.67208        1.54824
H          0.11433        6.07532        3.69359
H          0.98870        2.20406        4.97291
H          4.44371        0.40343       -1.31177
H          3.69329       -2.67557        2.52748
H          1.98770       -1.04486        1.92983
H          8.44425       -1.11553       -1.57232
H          7.79092       -0.22526       -0.21513
H          7.20366        0.24091       -3.16886
H          8.09224        1.24856       -2.05660
H          6.35656        1.09040       -1.85823
H          5.32292       -3.31578       -1.99414
H          6.89400       -3.02972       -2.70354
H          4.56623       -1.08249       -3.09241
H          4.88059       -2.48206       -4.11156
H          6.07363       -1.21076       -4.02816
H          8.85243       -3.39756       -0.96639
H          7.78138       -5.39580        2.72212
H          5.72613       -4.06867        2.88061
H         10.00044       -5.52494       -0.24811
H         10.13288       -5.44881        2.83216
H         12.42683       -6.22053        2.23375
H         13.73594       -8.28432        1.53356
H         13.33480      -10.64552        0.73686
H         12.37212      -12.69062        0.65865
H         11.03547      -14.71665        0.03288
H          7.49401      -13.91775       -1.45934
H         11.48620      -19.92797       -2.99843
H          8.83399      -23.07674       -2.96458
H          4.84064      -22.38006       -0.94391
H          4.83616      -25.13627       -0.66799
H          8.79163      -23.84558       -0.69285
