75

C         -0.05841       -6.93321        2.72329
N          0.58371       -7.88297        2.09544
C          1.83886       -7.39416        1.90814
C          1.98186       -6.11737        2.43054
N          0.73932       -5.85255        3.04863
C          0.31308       -4.71754        3.76926
O          0.84143       -3.63340        3.54618
N         -0.72092       -4.74870        4.72201
C         -1.26126       -3.62730        5.33456
C         -2.26804       -4.07571        6.15059
N         -2.33049       -5.43789        6.11958
C         -1.36560       -5.81398        5.31048
C          3.10562       -5.25886        2.44236
C          4.39159       -5.62617        2.42006
C          5.19290       -4.44944        2.46491
C          4.30539       -3.28371        2.46288
O          4.59728       -2.10963        2.47180
N          3.04933       -3.88204        2.44016
C          6.45280       -4.83848        2.54595
O          6.59521       -6.25355        2.51700
C          5.30911       -6.76940        2.41323
O          5.01342       -7.94448        2.33608
S          7.77633       -3.77636        2.80442
C          9.05618       -4.64522        1.96319
C          9.56450       -5.85557        2.38958
S         10.83322       -6.41789        1.39072
C         10.75529       -5.01579        0.41513
C          9.75839       -4.15217        0.81761
S          9.47981       -2.60578        0.00826
C          8.28564       -3.16093       -1.11776
C          8.42991       -2.98334       -2.44100
C          7.42569       -3.45235       -3.33975
S          7.50906       -5.09188       -3.85818
C          6.06022       -5.00962       -4.80417
C          5.44293       -3.78208       -4.59623
C          6.33015       -2.82813       -3.91350
C          6.00878       -1.45688       -3.78441
C          6.88919       -0.47370       -3.24224
N          7.59065        0.35915       -2.84715
C          4.75472       -1.09684       -4.32412
C          3.85672       -2.03345       -4.89925
C          4.15343       -3.40616       -5.04467
C          3.14091       -4.31611       -5.46867
N          2.26678       -5.00496       -5.79404
C          5.76516       -6.16107       -5.60310
C          5.27257       -6.06453       -6.84951
C          4.96747       -7.22992       -7.61012
O          5.64351       -8.41810       -7.47192
C          5.17194       -9.34054       -8.37153
C          4.12471       -8.74548       -9.05312
C          3.99178       -7.40976       -8.58858
C          2.97805       -6.43436       -9.06724
C          5.73088      -10.64099       -8.48428
C          5.62068      -11.37017       -9.60180
H         -1.11994       -6.97318        2.93315
H          2.58263       -7.98372        1.38249
H         -0.89270       -2.63239        5.12164
H         -2.93735       -3.49003        6.76936
H         -1.10162       -6.84946        5.14329
H          2.19493       -3.33520        2.51577
H          9.25426       -6.44861        3.23944
H         11.45189       -4.89253       -0.40274
H          7.40507       -3.64762       -0.70788
H          9.30537       -2.48961       -2.85413
H          4.44118       -0.05106       -4.28314
H          2.88474       -1.66699       -5.23807
H          6.00595       -7.14342       -5.19677
H          5.06173       -5.10734       -7.31336
H          3.51461       -9.22487       -9.80645
H          2.23348       -6.92412       -9.70438
H          3.45238       -5.63905       -9.64953
H          2.43949       -5.98345       -8.23182
H          6.29234      -11.02089       -7.63626
H          5.10510      -11.01217      -10.48718
H          6.07832      -12.35213       -9.66237
