82

C          0.53894       -5.54528        2.75302
N          0.65056       -6.79433        3.11322
C          1.40819       -7.35833        2.13581
C          1.81081       -6.44290        1.17463
N          1.26375       -5.23120        1.61464
C          1.27865       -3.94924        1.03917
O          1.35547       -3.81610       -0.17392
N          1.10418       -2.80530        1.83833
C          0.65683       -1.56772        1.40473
C          0.58564       -0.77023        2.52263
N          1.03024       -1.44591        3.62155
C          1.37014       -2.63646        3.18174
C          2.67301       -6.71621        0.04904
O          3.07638       -5.79752       -0.92355
C          3.30936       -7.89177       -0.26825
C          3.45994       -9.26419        0.12539
O          2.84647       -9.89666        0.96501
N          4.45809       -9.75362       -0.68835
C          4.93832       -8.84056       -1.59520
O          5.84249       -8.99799       -2.39514
C          4.16605       -7.66220       -1.34296
C          3.93743       -6.41174       -1.85132
C          4.40671       -5.81552       -3.05966
C          4.60883       -6.57965       -4.14845
C          5.04733       -6.09448       -5.44094
C          4.40499       -6.31473       -6.59942
C          4.82567       -5.80405       -7.88360
C          3.85637       -5.83375       -8.81085
C          2.60261       -6.36981       -8.31578
S          2.87283       -7.14306       -6.74853
C          1.38337       -6.17323       -8.84992
C          1.04988       -5.33898       -9.99263
C         -0.22794       -4.91869       -9.98374
C         -0.96890       -5.40040       -8.83422
S         -0.09432       -6.72394       -8.09670
C         -2.09397       -4.83676       -8.36324
C         -2.67533       -5.17452       -7.10640
O         -2.10643       -6.04488       -6.18225
C         -3.79939       -4.70897       -6.48263
C         -4.87536       -3.78713       -6.64889
O         -5.09428       -3.05488       -7.60475
N         -5.60474       -3.90419       -5.48890
C         -5.14763       -4.89371       -4.64497
O         -5.69850       -5.34868       -3.66774
C         -3.93481       -5.34738       -5.24099
C         -2.82784       -6.11927       -5.00528
C         -2.29825       -6.82556       -3.88626
C         -2.89355       -6.84974       -2.68320
C         -2.25933       -7.45754       -1.56565
C         -1.26272       -8.42473       -1.50356
N         -0.84479       -8.64995       -0.23261
C         -1.55110       -7.82613        0.49870
N         -2.43602       -7.04955       -0.23313
C         -3.12115       -5.98454        0.37820
O         -2.64208       -5.51247        1.40580
N         -4.29032       -5.39102       -0.10214
C         -4.64930       -4.07123        0.11876
C         -5.84768       -3.88792       -0.52259
N         -6.31560       -5.08154       -0.98508
C         -5.37181       -5.96178       -0.72803
H         -0.09473       -4.83300        3.26803
H          1.61248       -8.41902        2.17531
H          0.39778       -1.39129        0.37074
H          0.24334        0.25493        2.59282
H          1.82261       -3.40351        3.79849
H          4.79233      -10.69970       -0.63173
H          4.52545       -4.73732       -3.09331
H          4.40754       -7.65027       -4.12733
H          5.96632       -5.51318       -5.43811
H          5.81466       -5.40556       -8.05683
H          3.97731       -5.45895       -9.81707
H          1.77533       -5.02444      -10.72725
H         -0.64524       -4.23035      -10.70517
H         -2.54824       -4.01120       -8.90692
H         -6.46281       -3.40707       -5.31700
H         -1.32266       -7.27370       -4.04544
H         -3.85523       -6.38507       -2.57894
H         -0.80298       -8.95221       -2.33090
H         -1.46455       -7.71906        1.57391
H         -4.00197       -3.39429        0.65889
H         -6.40601       -2.97067       -0.64881
H         -5.43161       -7.01288       -0.97855
