82

C          4.57007        0.89258       -7.37663
C          4.23415        1.70903       -8.42178
S          4.28159        3.36574       -7.91769
C          4.72627        2.94399       -6.32557
Cl         5.02917        4.17718       -5.17666
C          4.79577        1.59411       -6.16439
C          5.06966        0.71754       -5.05893
O          5.28832        0.98983       -3.89367
C          4.94673       -0.65973       -5.69258
C          4.81756       -0.51183       -7.17442
C          5.08577       -1.43127       -8.12506
C          4.90967       -1.15461       -9.51242
N          4.74174       -0.92735      -10.63431
C          5.69195       -2.67895       -7.82582
N          6.25109       -3.66336       -7.58415
C          4.83645       -1.76099       -4.92922
N          4.82484       -1.85423       -3.54494
C          5.82567       -2.44292       -2.81335
S          6.29167       -1.59201       -1.37935
C          7.60303       -2.61410       -1.13849
N          8.49361       -2.35359       -0.05737
O          9.69343       -2.26688       -0.34526
O          8.00263       -2.27218        1.07548
C          7.68857       -3.63363       -2.05242
C          6.58479       -3.60576       -2.97222
C          6.27776       -4.65621       -3.91186
C          7.00767       -5.76045       -4.18274
C          6.57093       -6.81175       -5.07521
S          5.30065       -6.51378       -6.21469
C          5.41173       -8.04473       -6.90339
C          6.34854       -8.84823       -6.29164
C          6.54775      -10.26265       -6.74027
C          7.02449       -8.13758       -5.20902
C          8.01885       -8.71636       -4.31919
C          8.87099       -9.70716       -4.62921
C          9.85213      -10.32648       -3.75303
C         10.95968      -10.84210       -4.30611
C         12.04801      -11.57214       -3.67304
C         13.21251      -11.83742       -4.29755
C         14.27385      -12.70471       -3.83353
C         15.21180      -12.95772       -4.76629
C         14.98557      -12.27515       -6.03095
S         13.63745      -11.16229       -5.85378
C         15.60567      -12.45770       -7.21431
C         16.61968      -13.43612       -7.55443
C         16.81324      -13.56816       -8.87773
C         15.97285      -12.69939       -9.68346
S         15.19197      -11.53221       -8.65927
C         15.84161      -12.79528      -11.01748
C         15.00391      -11.99611      -11.84322
S         15.51270      -11.43561      -13.41510
C         14.02112      -10.60050      -13.73582
C         13.20319      -10.80928      -12.68400
C         13.72491      -11.58215      -11.66881
O         12.89417      -11.83830      -10.61481
C         11.80284      -11.09011      -11.00222
N         10.71317      -11.09256      -10.08013
O          9.58961      -11.28813      -10.56273
O         10.96676      -10.85691       -8.89299
C         11.90971      -10.47342      -12.25185
H          3.97708        1.47800       -9.44621
H          4.66727       -2.73489       -5.37400
H          4.60773       -0.93652       -3.13121
H          8.46772       -4.38490       -2.02405
H          5.30787       -4.55569       -4.38730
H          7.97231       -5.90310       -3.70651
H          4.76125       -8.30716       -7.72642
H          5.76721      -10.56200       -7.44970
H          6.50028      -10.95392       -5.89448
H          7.50319      -10.37403       -7.26149
H          8.09223       -8.28691       -3.32272
H          8.87789      -10.10665       -5.63978
H          9.65708      -10.37868       -2.68697
H         11.06043      -10.71647       -5.38552
H         11.85566      -11.97938       -2.68381
H         14.27953      -13.13607       -2.84171
H         16.05816      -13.60839       -4.59887
H         17.13920      -14.02488       -6.81145
H         17.51015      -14.27110       -9.31641
H         16.44558      -13.53720      -11.53539
H         13.86847      -10.04609      -14.65114
H         11.15786       -9.86497      -12.73443
