85

O        -10.37401        8.18706        7.18560
C         -9.64797        8.30277        6.01675
N        -10.08615        9.27686        5.23262
C        -11.09942        9.87131        5.95336
C        -11.29385        9.18383        7.12480
C        -11.80744       11.04880        5.51475
O        -12.46835       11.76215        6.26320
C         -8.52435        7.45690        5.71169
S         -7.58001        6.78076        7.01860
C         -6.68549        5.98852        5.87180
C         -7.09581        6.26903        4.58800
N         -8.15060        7.12771        4.47599
C         -6.33483        5.45850        3.55775
C         -5.45550        4.65446        4.50936
C         -5.67687        5.01258        5.82232
S         -4.78339        4.19397        6.94167
C         -4.09632        3.18868        5.68554
C         -4.51285        3.60475        4.41878
C         -3.20391        2.13418        6.01536
C         -3.33227        1.44291        7.16099
C         -2.36414        0.48194        7.51707
S         -1.03720        0.98103        8.45995
C         -0.32545       -0.58108        8.45742
C         -1.11833       -1.48004        7.75755
C         -2.33537       -0.87455        7.28360
C         -3.41450       -1.67758        6.61767
C         -3.31431       -3.16217        7.00145
C         -3.70498       -3.45569        8.45732
O         -3.24813       -4.43478        9.05335
C         -4.73872       -2.58223        9.12577
C         -1.88453       -3.65736        6.70117
C         -0.81303       -2.93935        7.53858
C          0.88807       -0.83997        9.15866
C          1.83067        0.09819        9.33097
C          3.03309       -0.15572       10.04199
S          4.15740        1.13234       10.21050
C          5.21875        0.18855       11.14623
C          4.77295       -1.09987       11.30103
C          3.50824       -1.29586       10.66930
C          6.39797        0.75392       11.70282
C          7.29643        1.40006       12.15551
C          8.24485        2.31730       12.67125
C          9.46258        1.93930       13.07585
C         10.41354        2.88673       13.61870
C         11.64732        2.61362       14.06675
C         12.53374        3.60969       14.61669
C         13.70525        3.11293       15.03531
C         13.83903        1.67757       14.84720
S         12.38752        1.03511       14.08241
C         14.89899        0.92512       15.19984
C         16.11305        1.40595       15.83559
C         17.01635        0.44805       16.08316
C         16.58528       -0.86024       15.66326
S         15.00001       -0.82111       14.95060
C         17.29105       -1.98596       15.79072
H        -11.97571        9.27030        7.95842
H        -11.70691       11.27733        4.44116
H         -5.73700        6.09655        2.90302
H         -7.00301        4.80698        2.98951
H         -4.18860        3.13412        3.49926
H         -2.40011        1.90850        5.31698
H         -4.12851        1.63029        7.87596
H         -3.30640       -1.56954        5.53151
H         -4.40212       -1.27769        6.87371
H         -4.02408       -3.72476        6.38206
H         -4.36120       -1.56375        9.23960
H         -4.95621       -2.96973       10.12531
H         -5.66150       -2.58655        8.54108
H         -1.67488       -3.48510        5.63645
H         -1.80036       -4.73922        6.85732
H          0.15407       -3.03374        7.02840
H         -0.71273       -3.43614        8.51048
H          1.02346       -1.84528        9.54339
H          1.69666        1.09966        8.92626
H          5.30223       -1.86473       11.85645
H          2.97047       -2.23525       10.69440
H          7.93167        3.35525       12.72843
H          9.75074        0.89146       13.00446
H         10.06823        3.91911       13.66954
H         12.26463        4.65484       14.68639
H         14.47527        3.72853       15.47644
H         16.27765        2.44348       16.08955
H         17.97473        0.62520       16.55033
H         18.27847       -1.98839       16.23783
H         16.89828       -2.93923       15.44983
