86

O         -4.15023       10.82411        2.15904
C         -4.27420        9.51865        1.73206
N         -4.29207        9.40873        0.40991
C         -4.13601       10.69817       -0.05023
C         -4.04097       11.55526        1.01732
C         -4.08837       11.04371       -1.45062
O         -3.62130       12.09342       -1.88022
C         -4.33696        8.39913        2.63670
S         -3.76174        6.82616        2.12837
C         -4.06367        6.28650        3.66663
C         -4.62026        7.26218        4.46578
N         -4.76381        8.49431        3.89472
C         -4.85023        6.77695        5.88071
C         -4.25753        5.38054        5.73794
C         -3.84159        5.13366        4.44417
S         -3.14658        3.65038        4.20266
C         -3.29649        3.28058        5.90390
C         -3.95948        4.29770        6.59140
C         -2.71956        2.06446        6.36272
C         -2.24389        1.94325        7.61148
C         -1.55599        0.77482        8.05915
S         -0.40792        0.95828        9.32358
C         -0.01349       -0.71724        9.38043
C         -0.70029       -1.40086        8.38233
C         -1.64037       -0.55648        7.67892
C         -2.60313       -1.14559        6.68163
C         -2.85311       -2.63620        6.92002
C         -3.71362       -2.98515        8.14074
O         -3.94415       -4.16765        8.41167
C         -4.27291       -1.89500        9.02131
C         -1.51006       -3.37262        6.96910
C         -0.60701       -2.87692        8.09479
C          0.89165       -1.13874       10.40860
C          1.30428       -2.40474       10.55907
C          2.20887       -2.84304       11.59432
C          3.36186       -3.48017       11.35037
C          4.31832       -3.84176       12.36489
C          5.54062       -4.07950       11.86714
C          5.61540       -3.92526       10.42241
S          3.98729       -3.83048        9.75709
C          6.72917       -3.72167        9.69468
C          8.07420       -3.57944       10.21859
C          8.93285       -3.02683        9.34773
C          8.33551       -2.72119        8.06530
S          6.72368       -3.38899        7.96428
C          8.92323       -1.98023        7.11256
C          8.28485       -1.66343        5.88057
S          7.34474       -0.20736        5.72690
C          6.92224       -0.56420        4.11303
O          6.23523        0.15220        3.44157
C          7.49413       -1.73209        3.68400
C          8.25587       -2.33563        4.67957
C          8.83842       -3.49917        4.27053
O          9.55173       -4.18101        4.94066
S          8.43783       -3.86106        2.66122
C          7.47436       -2.40763        2.47731
C          6.79827       -2.11290        1.25620
C          7.26358       -2.47912        0.05487
H         -3.92307       12.62315        1.13144
H         -4.51350       10.28361       -2.12795
H         -5.91572        6.72993        6.12095
H         -4.29881        7.37460        6.60986
H         -4.16786        4.26856        7.65384
H         -2.60004        1.27067        5.63359
H         -2.30106        2.78417        8.29949
H         -2.17163       -1.01622        5.68031
H         -3.55584       -0.60800        6.69300
H         -3.42063       -3.01186        6.05848
H         -3.47800       -1.43636        9.61195
H         -4.99884       -2.33100        9.71516
H         -4.79894       -1.14513        8.42805
H         -0.99171       -3.23491        6.01105
H         -1.65311       -4.45358        7.08686
H          0.42790       -3.12835        7.83084
H         -0.87975       -3.42328        9.00486
H          1.26135       -0.38485       11.10230
H          1.02501       -3.20014        9.88440
H          1.92098       -2.59974       12.61317
H          4.07194       -3.85785       13.41685
H          6.39494       -4.31196       12.48545
H          8.34297       -3.82984       11.23453
H          9.96130       -2.79401        9.58682
H          9.92145       -1.58272        7.27180
H          5.87379       -1.53801        1.30840
H          8.19439       -3.02027       -0.08567
H          6.71430       -2.22682       -0.84774
