57

O         -2.87356        1.16497       -2.36048
C         -1.93699        1.01176       -1.36319
N         -1.02158        0.09705       -1.64430
C         -1.35917       -0.35026       -2.90675
C         -2.49969        0.28722       -3.32722
C         -0.60199       -1.33556       -3.64216
O         -0.90625       -1.73425       -4.76245
C         -1.95639        1.76552       -0.14299
S         -2.65326        3.32685       -0.08378
C         -2.29806        3.49928        1.57517
C         -1.65513        2.39305        2.08377
C         -1.45010        1.39159        1.08675
C         -2.65274        4.65971        2.31909
C         -2.98422        5.64608        2.91540
C         -3.41117        6.81594        3.59458
C         -3.08157        8.03374        3.14698
C         -3.52416        9.21207        3.80988
S         -2.58796       10.65056        3.68405
C         -3.67994       11.54093        4.64032
C         -4.74328       10.77782        5.05843
C         -4.65324        9.43836        4.58015
C         -3.49439       12.91740        4.94130
C         -3.29465       14.18308        5.18255
C         -3.06180       15.65857        5.46381
C         -2.00505       16.03485        6.19402
C         -1.80922       17.38877        6.58017
S         -0.20811       17.96969        6.81886
C         -0.74854       19.52430        7.25859
C         -2.12055       19.61584        7.24639
C         -2.73029       18.38805        6.85214
C          0.14421       20.58077        7.59419
C          0.93947       21.44151        7.84673
C          1.93566       22.41978        8.09565
C          1.77286       23.38377        9.01000
C          2.79239       24.34913        9.23139
N          2.73667       25.34529       10.10546
C          3.93417       26.01889        9.96992
C          4.69163       25.40530        9.00792
O          3.98912       24.34952        8.53150
C          4.29871       27.18430       10.73980
O          5.35926       27.78748       10.60341
H         -3.11523        0.24634       -4.21424
H          0.29379       -1.71492       -3.12351
H         -1.34892        2.29887        3.11916
H         -0.97102        0.43606        1.26805
H         -4.01458        6.67716        4.48629
H         -2.45264        8.14143        2.26413
H         -5.55467       11.15592        5.66857
H         -5.40100        8.68066        4.78115
H         -3.81618       16.34405        5.09333
H         -1.27665       15.29364        6.51634
H         -2.66701       20.51378        7.50847
H         -3.80260       18.24381        6.79450
H          2.84659       22.34858        7.50570
H          0.86872       23.46150        9.60481
H          5.66868       25.57614        8.57935
H          3.54677       27.50777       11.47765
