82

O         -9.82434        8.89680        4.08502
C         -8.69190        9.19167        3.36275
N         -8.73926       10.38343        2.78949
C         -9.98630       10.87374        3.10801
C        -10.63521        9.97441        3.91594
C        -10.49258       12.14009        2.63507
O        -11.67041       12.47370        2.71181
C         -7.57725        8.30620        3.23818
S         -6.00498        8.85219        2.82856
C         -5.31471        7.27217        2.90291
C         -6.31759        6.40381        3.18905
C         -7.58526        6.94858        3.40030
S         -8.90136        5.79500        3.80932
C         -7.67372        4.53617        3.71977
C         -8.03805        3.13680        4.00131
O         -7.20705        2.22806        3.91495
C         -9.47148        2.84621        4.43214
C         -9.74864        1.37632        4.68877
C         -6.38880        4.99528        3.37646
C         -3.91463        7.02679        2.70008
S         -2.72089        8.24316        3.10136
C         -1.55687        7.12125        2.75844
C         -2.07769        5.92896        2.30935
N         -3.44226        5.85045        2.29482
C         -1.00067        4.87896        2.11814
C          0.19131        5.68439        2.63017
C         -0.17427        6.97551        2.95211
S          1.01510        7.91158        3.61523
C          2.11828        6.56337        3.56633
C          1.53928        5.43950        2.97326
C          3.38579        6.75756        4.17231
C          4.48049        6.08819        3.78216
C          5.73366        6.25896        4.42740
S          6.01834        7.19814        5.84558
C          7.67826        6.75197        5.95802
C          7.95359        5.95322        4.89362
C          6.89809        5.65692        4.03075
S          7.25882        4.57006        2.64395
C          8.89226        4.47901        3.28702
C          9.89689        3.62438        2.63798
O         11.05940        3.59135        3.03165
C          9.47819        2.77641        1.43306
C         10.32664        1.52467        1.27787
C          9.11522        5.27065        4.43339
C          8.44440        7.20835        7.06350
C          9.16650        8.33581        7.04001
C          9.95978        8.82269        8.14655
C         10.76916        9.84136        7.81814
C         10.67124       10.23168        6.41841
S          9.31437        9.39362        5.66569
C         11.50979       11.02809        5.73026
C         12.71562       11.67096        6.23051
C         13.46946       12.22166        5.26723
C         12.90991       12.07253        3.94758
S         11.33894       11.33940        3.99723
C         13.49615       12.41234        2.79750
H        -11.59444        9.94679        4.41174
H         -9.73536       12.80210        2.18311
H        -10.15785        3.19383        3.65120
H         -9.67018        3.39896        5.35712
H         -9.68620        0.79768        3.76117
H        -10.75627        1.25171        5.09980
H         -9.03409        0.95376        5.40289
H         -5.54471        4.31859        3.27710
H         -0.87706        4.61654        1.06402
H         -1.18357        3.99617        2.73490
H          2.04048        4.48400        2.87859
H          3.42872        7.48259        4.98139
H          4.41642        5.39635        2.94577
H          9.54298        3.39478        0.53208
H          8.44607        2.43540        1.54883
H         11.30298        1.76378        0.84667
H          9.82619        0.81455        0.61160
H         10.48872        1.03082        2.24162
H         10.08770        5.32393        4.91155
H          8.40874        6.60082        7.96397
H          9.91170        8.38331        9.13460
H         11.45059       10.30462        8.51766
H         12.99748       11.67266        7.27140
H         14.41573       12.71455        5.44199
H         14.48645       12.84981        2.76618
H         12.99980       12.23930        1.84651
