68

O         -2.07957        3.00385        2.23609
C         -2.63315        2.90572        0.97931
N         -3.29995        1.78038        0.79815
C         -3.16882        1.09382        1.98534
C         -2.42321        1.84370        2.86026
C         -3.74038       -0.20990        2.21255
O         -3.46789       -0.91673        3.17999
C         -2.46349        3.90935       -0.03508
O         -1.72684        5.04082        0.21107
C         -1.64522        5.80553       -0.92260
C         -2.38342        5.15963       -1.89876
C         -2.92448        3.95830       -1.34388
C         -3.77493        3.00479       -2.09649
F         -4.45562        2.10322       -1.35419
F         -4.71773        3.67467       -2.81930
F         -3.03844        2.30400       -2.99829
C         -0.93321        7.03367       -0.95719
C         -0.39676        7.51492       -2.09133
C          0.29094        8.74985       -2.12417
S         -0.04064       10.13648       -1.14574
C          1.21393       11.10847       -1.85603
C          1.78832       10.36354       -2.83299
C          1.28657        9.08599       -2.97122
O          1.84707        8.29170       -3.92708
C          2.79305        9.17095       -4.42060
N          3.62012        8.65159       -5.47103
O          4.47848        9.41970       -5.92493
O          3.41977        7.48787       -5.84375
C          2.80133       10.43384       -3.81108
C          1.48258       12.46293       -1.45358
O          1.95486       13.37978       -2.36158
C          2.10300       14.60582       -1.75915
C          1.74899       14.44897       -0.43174
C          1.35069       13.09444       -0.22188
C          0.90096       12.54285        1.07893
F          1.38839       11.30282        1.32877
F          1.30282       13.32453        2.11828
F         -0.45252       12.47184        1.15736
C          2.53901       15.79442       -2.40616
C          2.82384       15.82283       -3.71569
C          3.24106       17.01786       -4.43157
C          4.32217       17.78154       -4.20312
C          4.67476       18.93873       -4.99317
C          5.80484       19.54258       -4.59719
C          6.44094       18.91392       -3.45039
S          5.50666       17.49948       -2.95381
C          7.56460       19.32441       -2.82833
C          8.37250       20.48166       -3.17805
C          9.42745       20.67654       -2.37050
C          9.53470       19.68969       -1.32782
S          8.26343       18.50819       -1.42400
C         10.47790       19.65390       -0.38298
H         -2.07857        1.71270        3.87610
H         -4.45640       -0.54318        1.44279
H         -2.54068        5.51750       -2.91039
H         -0.82011        7.54718       -0.00630
H         -0.45536        6.94680       -3.01767
H          3.46030       11.25838       -4.05156
H          1.77117       15.23107        0.31731
H          2.62745       16.69435       -1.80346
H          2.70146       14.93500       -4.33066
H          2.59592       17.26249       -5.27436
H          4.07679       19.27618       -5.82904
H          6.20350       20.41853       -5.08879
H          8.14872       21.13426       -4.00915
H         10.13287       21.48833       -2.47817
H         11.26384       20.39874       -0.33197
H         10.48674       18.87339        0.37224
