90

N          0.97595        0.05069       -0.08278
C          2.23692        0.05069       -0.08278
C          3.75692        0.05069       -0.08278
C          4.61569        1.08225       -0.07877
C          5.97685        0.55158       -0.02860
C          7.21714        1.25472       -0.05594
S          7.90598        1.74831        1.50849
C          9.19826        2.37025        0.73957
C          9.16632        2.27149       -0.59158
C          8.04747        1.65311       -1.13848
C          7.86167        1.44782       -2.62471
C          6.41999        1.44627       -3.05008
O          5.64858        2.38982       -2.98296
O          6.07105        0.21616       -3.52184
C          7.25109       -0.48936       -3.93457
C          8.38749        0.09227       -3.10400
C          9.75462        0.14500       -3.79774
C          9.70008        0.49597       -5.28034
C          8.72439       -0.36931       -6.05980
C          9.03549       -1.85247       -6.15178
C          7.66806       -2.42791       -6.39043
O          7.42764       -3.56043       -6.77106
O          6.70875       -1.51012       -6.06135
C          7.33774       -0.35978       -5.46803
C         10.46747        2.92988       -0.78827
C         10.50583        3.05166        0.75348
C          5.92492       -0.79734        0.07083
C          4.51602       -1.21945        0.00154
C          4.02818       -2.48925        0.00335
C          2.62756       -2.91494       -0.21345
C          2.55087       -4.25892       -0.14506
C          1.37787       -5.06672       -0.12608
C          0.62066       -5.54045       -1.21793
C          0.73169       -5.27664       -2.71693
C         -0.62049       -5.39290       -3.38771
O         -1.57808       -4.65489       -3.21914
O         -0.65291       -6.48456       -4.20690
C          0.68295       -6.85236       -4.57419
C          1.57350       -6.32846       -3.44869
C          2.95537       -5.83584       -3.88910
C          2.96378       -5.09408       -5.22126
C          2.30873       -5.87822       -6.34477
C          2.97917       -7.17370       -6.76086
C          1.83064       -7.93546       -7.35474
O          1.92596       -8.92460       -8.05463
O          0.64833       -7.38363       -6.94603
C          0.90661       -6.32148       -6.00496
S         -0.63102       -6.69850       -0.65170
C         -0.22784       -6.37887        0.88948
C          0.80751       -5.54823        1.04301
C          0.81489       -5.64744        2.51053
C         -0.38802       -6.60509        2.33636
C          3.87981       -4.76238        0.15760
C          4.75692       -3.74497        0.24243
C          6.09692       -3.91766        0.65127
N          7.19505       -4.07545        0.99277
H          4.37226        2.13396       -0.08630
H          8.35402        2.26080       -3.17557
H          7.10430       -1.53915       -3.65396
H          8.51979       -0.55568       -2.22498
H         10.24055       -0.83094       -3.69153
H         10.41463        0.85774       -3.28710
H         10.70240        0.41093       -5.71652
H          9.40234        1.54683       -5.38821
H          8.66925        0.01457       -7.08969
H          9.43856       -2.27503       -5.22860
H          9.69932       -2.06905       -6.99267
H          6.78990        0.52410       -5.80916
H         10.40956        3.84150       -1.39289
H         11.20828        2.29160       -1.28299
H         10.47850        4.05024        1.20301
H         11.27787        2.50213        1.30406
H          6.78782       -1.43915        0.14462
H          1.75114       -2.30799       -0.35159
H          1.10257       -4.26285       -2.90500
H          0.71971       -7.94926       -4.57727
H          1.75714       -7.16424       -2.75868
H          3.62561       -6.69951       -3.96642
H          3.39056       -5.19175       -3.11684
H          3.99605       -4.84915       -5.49706
H          2.43587       -4.13923       -5.10281
H          2.26243       -5.23584       -7.23674
H          3.38258       -7.74933       -5.92456
H          3.75526       -6.99571       -7.51075
H          0.19782       -5.51594       -6.23210
H          0.64749       -4.68988        3.01637
H          1.75417       -6.03909        2.91537
H         -1.36477       -6.28670        2.72049
H         -0.28521       -7.65539        2.63126
H          4.08037       -5.80541        0.35879
