108

C         -8.77221        0.24931        4.90828
C         -7.38891       -0.27457        5.14467
O         -6.35782        0.07673        4.60120
C         -7.51774       -1.32492        6.16246
C         -8.85107       -1.44819        6.57803
C         -9.70029       -0.49045        5.79864
C        -11.03355       -0.33796        5.96423
C        -11.96021       -1.33277        6.60986
O        -11.81353       -2.52439        6.79047
C        -13.22886       -0.64786        6.82706
C        -13.21002        0.59250        6.20560
C        -11.88902        0.84437        5.62270
O        -11.58277        1.89695        5.09145
C        -14.31712        1.42092        6.24013
C        -15.44767        0.97450        6.93535
C        -15.45316       -0.27746        7.57953
C        -14.33492       -1.11091        7.52044
C         -9.10135       -2.26554        7.67610
C         -8.06414       -3.01181        8.25036
C         -6.75727       -2.91397        7.76341
C         -6.46771       -2.04642        6.71470
C         -8.97042        1.10615        3.89501
N         -8.04763        1.68115        3.02582
C         -8.30564        2.56769        2.01478
S         -9.68016        3.62089        2.07843
C         -9.35915        4.27920        0.56280
N        -10.24952        5.26018       -0.00241
O         -9.93527        5.70946       -1.11130
O        -11.26106        5.58117        0.63954
C         -8.20839        3.77705       -0.00146
C         -7.57820        2.79440        0.84258
C         -6.34994        2.11017        0.51008
C         -5.90924        1.83293       -0.73205
C         -4.62646        1.21199       -1.02346
C         -3.67141        1.76326       -1.80954
C         -3.66683        2.99620       -2.57177
C         -2.55079        3.32762       -3.25356
C         -1.33982        2.50407       -3.21351
C         -1.30666        1.31063       -2.58593
C         -2.49760        0.87308       -1.88716
C         -2.74654       -0.28869       -1.25040
C         -4.06885       -0.09952       -0.60975
C         -4.64442       -0.92965        0.27065
N         -1.99503       -1.45168       -1.28094
C         -1.21764       -1.97057       -0.28028
S         -1.03811       -1.19772        1.25512
C         -0.37055       -2.58993        1.92589
N         -0.21537       -2.66756        3.33758
O         -0.78876       -3.60865        3.89770
O          0.49089       -1.80869        3.88065
C         -0.07174       -3.56268        1.00549
C         -0.48450       -3.16246       -0.30687
C         -0.20755       -3.97321       -1.46501
C          0.11890       -3.50108       -2.68177
C          0.38604       -4.34942       -3.83126
C          0.67355       -3.91285       -5.07200
C          0.36121       -4.83456       -6.21595
O          0.35671       -6.04381       -6.22988
C         -0.09524       -3.93153       -7.29610
C          0.07552       -2.58899       -6.90943
C          0.83867       -2.57332       -5.63578
C          1.73965       -1.64674       -5.24874
C          2.02295       -0.30627       -5.85631
O          1.50961        0.25044       -6.80170
C          3.09840        0.29120       -5.06914
C          3.52137       -0.58437       -4.08317
C          2.75857       -1.83292       -4.15505
O          3.00386       -2.81452       -3.48635
C          4.53721       -0.24763       -3.20725
C          5.11350        1.02070       -3.33888
C          4.68037        1.91088       -4.33897
C          3.66474        1.54694       -5.22473
C         -0.51454       -1.60014       -7.68020
C         -1.17475       -1.96159       -8.86423
C         -1.27739       -3.30353       -9.25840
C         -0.74559       -4.31222       -8.45981
H        -14.30455        2.39061        5.75135
H        -16.33435        1.60469        6.98605
H        -16.33799       -0.59859        8.12699
H        -14.32731       -2.08215        8.00669
H        -10.07501       -2.33925        8.14468
H         -8.27956       -3.65762        9.09835
H         -5.96341       -3.49461        8.22885
H         -5.45124       -1.91719        6.35699
H         -9.98253        1.38626        3.63467
H         -7.09288        1.33446        3.17049
H         -7.83328        4.10111       -0.96608
H         -5.71959        1.81775        1.34782
H         -6.49565        2.10738       -1.60659
H         -4.55914        3.60842       -2.61964
H         -2.52107        4.22805       -3.85982
H         -0.45268        2.90038       -3.69790
H         -0.40342        0.71636       -2.52053
H         -4.16435       -1.84501        0.59547
H         -5.59336       -0.69166        0.74033
H         -2.50540       -2.16927       -1.79811
H          0.41562       -4.49969        1.25122
H         -0.18909       -5.05232       -1.31016
H          0.16059       -2.42632       -2.83590
H          0.21981       -5.41617       -3.68898
H          4.87196       -0.94291       -2.44361
H          5.90803        1.32520       -2.65863
H          5.14377        2.89264       -4.42372
H          3.32617        2.22124       -6.00631
H         -0.50351       -0.55731       -7.38832
H         -1.62836       -1.18369       -9.47714
H         -1.80117       -3.55620      -10.17727
H         -0.86836       -5.36088       -8.71376
