86

C        -12.15012        0.06120       -3.27590
C        -11.15246        0.33622       -2.33297
C        -11.36205        1.32252       -1.37976
C        -12.56736        2.02343       -1.33389
C        -13.55854        1.75930       -2.27522
C        -13.34684        0.78250       -3.25082
O        -10.41308        1.67973       -0.47026
C         -9.12798        1.18042       -0.60696
C         -8.17214        2.00867        0.20364
C         -8.78125        0.14235       -1.40264
C         -9.85954       -0.36943       -2.33527
O         -9.63223       -1.29700       -3.09908
N         -7.54389       -0.48097       -1.57456
C         -6.51921       -0.66934       -0.69069
S         -6.77208       -0.84311        1.01714
C         -5.11912       -0.87125        1.32401
N         -4.65646       -0.88700        2.67050
O         -3.94237       -1.84254        2.99608
O         -4.97155        0.07331        3.38489
C         -4.35146       -0.91847        0.19249
C         -5.16756       -0.83946       -0.98907
C         -4.62290       -0.82110       -2.32175
C         -3.45984       -1.40658       -2.65353
C         -2.82139       -1.29169       -3.94865
C         -1.51129       -1.48252       -4.17745
C         -0.88128       -1.32980       -5.46622
C          0.42585       -1.62602       -5.46392
C          0.92952       -2.07187       -4.17492
S         -0.32826       -1.89970       -2.95614
C          2.14706       -2.59745       -3.93712
C          3.18982       -2.80422       -4.92591
C          4.27577       -3.43461       -4.45823
C          4.18457       -3.77377       -3.05919
S          2.67784       -3.21047       -2.37068
C          5.09169       -4.42952       -2.31966
N          6.34322       -4.90420       -2.66813
C          7.25234       -5.53082       -1.85860
S          6.76944       -6.53187       -0.53093
C          8.36318       -6.93232       -0.14970
N          8.66374       -7.83048        0.93059
O          9.86575       -8.06347        1.12831
O          7.72623       -8.31077        1.57787
C          9.27841       -6.31470       -0.96727
C          8.64411       -5.50525       -1.96329
C          9.35001       -4.73737       -2.95673
C         10.68561       -4.61368       -3.06369
C         11.44175       -3.89125       -4.09052
C         12.79765       -3.90517       -4.14216
O         13.55989       -3.24813       -5.10125
C         12.93114       -2.66737       -6.16494
C         13.72569       -2.16358       -7.19483
C         13.12859       -1.56989       -8.30979
C         11.73844       -1.47557       -8.39678
C         10.94947       -1.97042       -7.36184
C         11.55468       -2.56500       -6.24911
C         10.73927       -3.09476       -5.15513
O          9.53167       -2.87669       -5.16581
C         13.68783       -4.65124       -3.17714
H        -11.99013       -0.69842       -4.03830
H        -12.72233        2.78698       -0.57537
H        -14.48969        2.32084       -2.25289
H        -14.11721        0.58865       -3.99396
H         -8.45716        3.06583        0.14314
H         -7.14347        1.95371       -0.16084
H         -8.21382        1.72234        1.25810
H         -7.57467       -1.11386       -2.38193
H         -3.26788       -0.96886        0.20736
H         -5.16354       -0.24850       -3.07318
H         -2.92345       -1.98666       -1.90465
H         -3.46734       -1.01471       -4.77930
H         -1.42126       -1.00686       -6.34547
H          1.04105       -1.56426       -6.34948
H          3.09436       -2.49323       -5.95584
H          5.13088       -3.67816       -5.07148
H          4.85541       -4.60499       -1.27129
H          6.63967       -4.60888       -3.59480
H         10.34807       -6.45065       -0.85243
H          8.71980       -4.22299       -3.67158
H         11.29384       -5.11208       -2.31676
H         14.80819       -2.23484       -7.13335
H         13.74665       -1.17993       -9.11554
H         11.26935       -1.01964       -9.26594
H          9.86586       -1.90147       -7.42492
H         13.28481       -5.63222       -2.90509
H         13.84672       -4.06090       -2.27091
H         14.66930       -4.84367       -3.62696
