70

C          1.14826       -1.78116       -3.17657
S          1.68231       -0.20063       -3.62644
C          2.49672       -0.78752       -5.06267
O          3.14706       -0.06120       -5.79679
N          2.30772       -2.13648       -5.18850
C          1.60588       -2.77372       -4.19246
O          1.38840       -3.97598       -4.13672
C          2.90757       -2.87552       -6.27359
C          0.43407       -2.00997       -2.06548
C          0.00791       -3.30692       -1.66446
S          1.04414       -4.17315       -0.59958
C          0.00479       -5.53701       -0.50925
C         -1.14436       -5.33893       -1.25215
C         -1.13959       -4.03898       -1.93030
C         -2.21178       -3.61686       -2.74915
C         -2.24355       -2.37321       -3.43980
N         -2.26749       -1.36208       -4.01118
C         -3.27494       -4.54053       -2.84571
C         -3.27951       -5.79859       -2.18460
C         -2.22123       -6.25078       -1.36619
C         -2.27138       -7.53522       -0.74802
N         -2.33604       -8.59888       -0.28833
C          0.42399       -6.60674        0.32241
C          1.14691       -7.61436       -0.18908
C          1.55483       -8.73353        0.59650
S          3.01864       -9.52696        0.15898
C          2.88666      -10.70565        1.40858
C          1.74152      -10.48318        2.15279
C          0.98502       -9.36252        1.69434
C         -0.22959       -8.93741        2.32866
N         -1.17428       -8.54807        2.88128
C          1.35705      -11.26696        3.28855
N          1.03612      -11.90873        4.20147
C          3.93706      -11.66494        1.50908
C          3.75288      -12.91225        1.96884
C          4.84705      -13.81447        2.06304
C          6.00591      -13.92566        1.34539
C          6.83158      -14.97596        1.71672
O          7.92619      -15.11233        0.93601
C          7.73480      -14.07680       -0.07749
N          6.54315      -13.28692        0.28801
C          6.38198      -15.70991        2.78171
S          4.85754      -15.04968        3.29047
C          6.96195      -16.86308        3.42021
S          7.91411      -17.98111        2.53456
C          8.17353      -18.96868        3.89897
C          7.55510      -18.46659        5.02102
C          6.85218      -17.25301        4.74366
C          8.94838      -20.16178        3.83197
C          9.61743      -21.14875        3.69095
C         10.41934      -22.29514        3.45329
C         11.64382      -22.18514        2.92704
H          3.01346       -2.24296       -7.15926
H          2.30460       -3.75467       -6.51787
H          3.90016       -3.20662       -5.95273
H          0.16929       -1.18465       -1.40782
H         -4.14156       -4.28644       -3.46014
H         -4.14845       -6.44570       -2.32608
H          0.12963       -6.54989        1.36496
H          1.44897       -7.58732       -1.23666
H          4.92951      -11.34796        1.19071
H          2.78290      -13.27826        2.29049
H          7.59280      -14.56308       -1.04883
H          8.62416      -13.43986       -0.10295
H          5.96157      -12.96793       -0.47897
H          7.59712      -18.93805        5.99564
H          6.30045      -16.69397        5.49054
H         10.00747      -23.27120        3.69024
H         12.07095      -21.21903        2.67360
H         12.24555      -23.06635        2.73219
