94

C          6.23685        5.76222       -7.22110
C          5.97019        4.61932       -6.51580
C          5.29399        3.64281       -7.28182
C          5.04215        4.03175       -8.56923
S          5.64815        5.62036       -8.84256
C          5.02487        2.43842       -6.54578
O          4.31537        1.50764       -6.88235
C          5.79395        2.66336       -5.24623
C          6.19333        4.12471       -5.17737
C          6.57622        4.85227       -4.11554
N          6.76307        6.25969       -4.17638
O          5.76391        6.96993       -3.99309
O          7.89378        6.66957       -4.46072
N          6.62281        4.36402       -2.78670
O          7.72000        4.38368       -2.21687
O          5.57604        3.91188       -2.30500
C          6.15826        1.64426       -4.44200
C          5.84489        0.27115       -4.69017
S          6.98101       -0.72403       -5.57114
C          6.02295       -2.07983       -5.36497
C          4.88831       -1.83893       -4.64838
C          4.75395       -0.48611       -4.26415
C          4.18284       -3.09050       -4.50887
O          3.13069       -3.30219       -3.93600
C          5.06825       -4.08966       -5.23552
C          6.13656       -3.43041       -5.73859
C          4.81482       -5.49974       -5.34509
C          4.67844       -6.30767       -4.28033
C          4.54892       -7.71881       -4.41701
S          3.68386       -8.60012       -3.18291
C          4.10810      -10.05247       -3.87883
C          4.82374       -9.92480       -5.04055
C          5.06539       -8.58762       -5.38034
C          5.16176      -11.25402       -5.49418
O          5.78172      -11.58423       -6.48368
C          4.56785      -12.14691       -4.41402
C          3.93137      -11.38873       -3.49943
C          4.69737      -13.57008       -4.40469
C          5.32138      -14.24075       -3.42402
C          5.45765      -15.69832       -3.42944
C          5.54160      -16.38845       -2.22271
C          5.70923      -17.78620       -2.22877
N          5.76037      -18.41157       -0.92124
O          6.69121      -18.07014       -0.17715
O          4.84709      -19.19332       -0.62820
C          5.83241      -18.53640       -3.41650
C          5.76163      -17.80351       -4.61325
C          5.56882      -16.41846       -4.62133
C          6.10482      -19.99450       -3.48997
S          7.32023      -20.65388       -2.44989
C          7.11509      -22.27538       -2.99407
C          6.24206      -22.28073       -4.06642
C          5.66003      -20.98577       -4.35180
C          4.76719      -20.77559       -5.41984
C          4.55365      -21.91730       -6.24034
S          3.56656      -21.66380       -7.74252
C          4.55690      -20.39708       -8.62628
C          5.91796      -20.89244       -9.08901
C          5.08386      -23.21671       -5.91003
S          4.67698      -24.70663       -6.85799
C          3.86539      -25.67893       -5.53743
C          3.38997      -27.01554       -6.07639
C          5.96700      -23.42609       -4.82413
C          7.88593      -23.28063       -2.33345
C          7.47970      -24.54987       -2.20837
H          6.73368        6.68009       -6.93285
H          4.55209        3.47673       -9.35847
H          6.78263        1.80639       -3.56862
H          3.92021       -0.09189       -3.69578
H          6.95300       -3.86132       -6.30065
H          4.76989       -5.89725       -6.35576
H          4.70859       -5.89881       -3.27117
H          5.65045       -8.26970       -6.23361
H          3.40349      -11.73227       -2.62271
H          4.26302      -14.07585       -5.26195
H          5.77174      -13.71330       -2.58385
H          5.48065      -15.85249       -1.27592
H          5.89048      -18.28579       -5.57976
H          5.54080      -15.91003       -5.58361
H          4.28131      -19.83396       -5.63417
H          4.66801      -19.50779       -7.99920
H          3.97950      -20.09160       -9.50651
H          6.51780      -20.04503       -9.44204
H          5.82211      -21.59095       -9.92697
H          6.48341      -21.37925       -8.28982
H          3.01593      -25.11234       -5.14237
H          4.56635      -25.85965       -4.71637
H          2.65165      -26.88847       -6.87439
H          2.91541      -27.59077       -5.27371
H          4.22408      -27.61301       -6.45958
H          6.40317      -24.39688       -4.63802
H          8.83129      -22.99192       -1.87622
H          6.52365      -24.90621       -2.57412
H          8.10426      -25.28182       -1.70630
