94

C          4.33120        0.08188        0.56412
C          4.01808       -0.62765       -0.56441
C          4.13492        0.16484       -1.73765
C          4.61621        1.42584       -1.52229
S          4.86735        1.67617        0.15564
C          3.77816       -0.54282       -2.93173
O          3.67416       -0.12624       -4.06972
C          3.61587       -1.95276       -2.41645
C          3.57649       -1.97343       -0.90735
C          3.16667       -2.94178       -0.05734
N          3.24913       -2.75495        1.35835
O          2.18706       -2.63124        1.98207
O          4.38395       -2.69400        1.85439
N          2.56275       -4.20666       -0.40154
O          2.14255       -4.37381       -1.55029
O          2.48481       -5.07848        0.47467
C          3.81162       -2.94189       -3.29748
N          3.95488       -2.91510       -4.66911
C          4.14982       -3.98026       -5.49992
S          3.66560       -3.83133       -7.15546
C          4.08842       -5.43027       -7.48598
N          3.91441       -5.93157       -8.80919
O          4.94999       -6.12614       -9.45580
O          2.75485       -6.11979       -9.19316
C          4.62804       -6.09108       -6.41331
C          4.68308       -5.24652       -5.25547
C          5.13889       -5.72708       -3.97835
C          6.32597       -5.57865       -3.35639
C          7.55599       -4.91045       -3.82518
C          8.08694       -4.98326       -5.11392
C          9.15412       -4.13974       -5.58603
N          9.46159       -4.17479       -6.90940
C          8.85408       -5.11107       -7.69609
C          7.98109       -6.02591       -7.18726
N          7.57379       -5.94061       -5.90334
C          7.47313       -7.15645       -7.90389
N          7.05295       -8.10988       -8.41621
C          9.15843       -5.07537       -9.09524
N          9.34982       -5.07663      -10.23579
C          9.89540       -3.30366       -4.70838
C          9.50781       -3.35501       -3.33252
C          8.33940       -4.19811       -2.88454
N          8.15678       -4.19082       -1.54856
S          9.37641       -3.27889       -0.90521
N         10.01426       -2.67501       -2.29434
C         10.98150       -2.40920       -5.22368
C         12.11283       -1.92329       -4.67763
C         12.97035       -0.92568       -5.30094
C         13.70762       -0.23790       -4.40603
C         13.43922       -0.65703       -3.03690
S         12.75690       -2.27623       -3.10044
C         13.54691        0.07340       -1.90844
C         14.12535        1.39742       -1.77875
C         13.95887        1.95232       -0.56806
C         13.20729        1.12912        0.35562
S         12.85515       -0.42722       -0.35306
C         12.80695        1.52703        1.57547
C         12.02873        0.74463        2.52978
C         10.86962        1.11162        3.09332
C          9.96605        0.39785        4.05293
C         10.29455       -0.58937        4.90577
C          9.38897       -1.16319        5.83588
N          8.64309       -1.63601        6.60558
C         11.62349       -1.13019        4.99884
N         12.68882       -1.56803        5.06761
C          8.63987        1.09133        3.97069
C          8.76908        2.22862        3.17837
C         10.13989        2.35728        2.66381
O         10.55042        3.29967        2.01509
C          7.73182        3.10568        2.87621
C          6.45664        2.82222        3.40929
C          6.30040        1.68286        4.20919
C          7.37754        0.80043        4.50394
S          4.66554        1.51963        4.74625
C          4.18460        2.90582        3.91176
C          5.21072        3.52376        3.24961
Br         2.41777        3.52690        3.87865
H          4.32038       -0.19233        1.61029
H          4.84501        2.19497       -2.24837
H          3.88358       -3.94894       -2.92391
H          3.71184       -2.01505       -5.10187
H          4.98579       -7.11396       -6.44324
H          4.36634       -6.25261       -3.41496
H          6.38797       -5.95719       -2.33497
H         10.76883       -2.07724       -6.24264
H         12.97198       -0.73272       -6.36532
H         14.36792        0.57744       -4.66410
H         14.66527        1.88218       -2.58013
H         14.34140        2.92693       -0.29494
H         13.06176        2.53315        1.91074
H         12.48255       -0.22084        2.73952
H          7.89921        3.96564        2.23428
H          7.17326       -0.06653        5.11268
H          5.09204        4.41971        2.65173
