73

C         18.39413       -5.22245       -0.95756
C         17.11703       -5.68936       -0.81305
C         16.13932       -4.80205       -1.32123
C         16.65757       -3.62575       -1.78888
S         18.37601       -3.64254       -1.66264
C         14.80638       -5.34158       -1.25758
O         13.76169       -4.77626       -1.50614
C         15.06792       -6.77820       -0.79991
C         16.48373       -6.87941       -0.30486
C         17.01573       -7.80514        0.50758
N         18.31619       -7.70487        1.06646
O         19.12460       -8.59246        0.76923
O         18.55793       -6.73114        1.79135
N         16.24999       -8.82725        1.12128
O         15.64528       -8.53461        2.15992
O         16.19677       -9.91837        0.54056
C         14.21618       -7.78827       -1.04985
C         12.98201       -7.61548       -1.72429
S         12.93216       -7.80741       -3.45618
C         11.28297       -7.55878       -3.46267
C         10.76091       -7.33102       -2.22424
C         11.72192       -7.36082       -1.19900
C          9.34368       -7.14777       -2.36956
O          8.52610       -6.95284       -1.48971
C          9.11448       -7.29220       -3.86770
C         10.30047       -7.54978       -4.46301
C          7.83735       -7.22881       -4.52194
C          6.78308       -6.56131       -4.03264
C          5.54140       -6.52318       -4.71621
S          4.52231       -5.13911       -4.52406
C          4.90164       -7.39929       -5.54897
N          5.34551       -8.63539       -5.93868
C          4.38076       -9.15063       -6.71027
S          2.88740       -8.23087       -7.07197
C          3.64941       -6.98159       -6.00801
C          3.28448       -5.75475       -5.54263
C          2.08165       -5.08921       -5.87954
C          1.50437       -4.20091       -5.05429
C          0.30379       -3.51904       -5.40161
S         -0.40516       -2.42284       -4.23553
C         -1.64408       -2.04457       -5.28553
C         -1.56288       -2.69741       -6.47738
C         -0.45487       -3.55278       -6.57030
C         -2.66947       -2.28026       -7.28727
O         -2.93974       -2.61837       -8.42271
C         -3.42273       -1.30832       -6.39468
C         -2.75858       -1.19234       -5.22313
C         -4.59471       -0.62568       -6.86539
C         -5.59383       -0.16207       -6.09869
C         -6.75006        0.46889       -6.65290
S         -7.37324        0.04562       -8.22349
C         -8.65305        1.17856       -8.13248
C         -8.63126        1.83021       -6.93213
C         -7.57589        1.42394       -6.09465
S         -7.48104        2.21622       -4.53118
C         -8.89482        3.26773       -4.76461
S         -9.41396        4.35665       -3.61017
S         -9.70831        3.06432       -6.32990
H         19.34474       -5.67439       -0.70594
H         16.13595       -2.77900       -2.21589
H         14.46291       -8.82231       -0.83960
H         11.51345       -7.21668       -0.14664
H         10.47543       -7.71389       -5.51643
H          7.76468       -7.74542       -5.47753
H          6.86635       -5.99516       -3.10692
H          4.47126      -10.13949       -7.14141
H          1.63083       -5.33769       -6.83626
H          1.94232       -3.97877       -4.08354
H         -0.22152       -4.15181       -7.44173
H         -3.00929       -0.55772       -4.38651
H         -4.63389       -0.53392       -7.95085
H         -5.54003       -0.24438       -5.01546
H         -9.34366        1.29259       -8.95645
