85

C          8.49568       -0.11935       -2.59020
C          9.65701       -0.51024       -1.98715
C          9.93880        0.21382       -0.80240
C          9.05762        1.22758       -0.55204
S          7.80688        1.22446       -1.73836
C         11.08452       -0.29434       -0.09442
O         11.63573        0.18064        0.87678
C         11.38656       -1.56992       -0.87584
C         10.68152       -1.49670       -2.19616
C         11.04370       -2.08593       -3.34415
N         10.39161       -1.82257       -4.57592
O          9.40307       -2.51740       -4.84502
O         10.83267       -0.89918       -5.27118
N         12.30804       -2.70924       -3.51357
O         12.30796       -3.91022       -3.80936
O         13.31574       -2.02181       -3.30532
C         11.94049       -2.66305       -0.31743
C         12.33603       -2.69029        1.03773
S         13.92389       -2.31918        1.58359
C         13.50726       -2.47317        3.25244
C         12.21001       -2.85646        3.35392
C         11.53382       -2.99170        2.09898
S          9.71737       -3.49828        2.28373
C         10.01089       -3.46295        4.16318
C         11.36803       -3.11945        4.50410
C         11.62133       -3.07380        5.82932
S         10.18572       -3.46712        6.68958
C          9.22344       -3.66441        5.26326
C          7.83213       -3.96749        5.22202
C          7.08069       -4.12999        6.32265
C          5.65158       -4.40234        6.33106
C          4.99250       -5.00519        7.35770
O          3.60927       -5.20100        7.35697
C          2.96106       -4.74632        6.26644
C          3.63099       -4.09921        5.20509
C          2.78826       -3.69807        4.20519
S          1.16176       -4.14677        4.55868
C          1.61194       -4.86392        6.05901
O          4.96842       -3.90643        5.20909
C          5.64712       -5.59698        8.49970
C          5.33483       -5.32375        9.77625
C          6.03351       -5.88878       10.86918
S          5.30080       -6.08579       12.42257
C          6.73151       -6.69618       13.16136
C          7.72083       -6.74258       12.23725
C          7.33988       -6.29382       10.92733
S          8.78644       -6.35944        9.69314
C          9.83555       -7.01918       11.10105
C          9.10860       -7.13314       12.33546
C          9.85312       -7.54615       13.38738
S         11.46461       -7.83126       12.86017
C         11.13691       -7.40908       11.21378
C         12.10797       -7.34063       10.18254
C         13.19048       -8.13901       10.16733
C         14.30947       -7.91565        9.30243
S         14.77496       -6.29449        8.89134
C         16.16483       -6.80974        8.06539
C         16.29478       -8.17689        8.08357
C         15.24180       -8.82280        8.80165
N         15.15705      -10.17494        8.97197
C         16.33686      -11.03166        8.93884
C         15.94030      -12.49127        9.09400
H          7.98050       -0.51195       -3.45751
H          9.05898        1.93480        0.26769
H         12.01422       -3.60509       -0.85425
H         14.23261       -2.27402        4.02601
H         12.53678       -2.83521        6.35334
H          7.36449       -4.06940        4.24542
H          7.52903       -4.04666        7.31288
H          3.03101       -3.17415        3.29202
H          0.87410       -5.32599        6.69858
H          6.42923       -6.29963        8.24196
H          4.51756       -4.63715        9.99430
H          6.74780       -6.96437       14.20820
H          9.57408       -7.68301       14.42264
H         11.97806       -6.56702        9.42771
H         13.28791       -8.95373       10.87919
H         16.82292       -6.08573        7.60770
H         17.12067       -8.67989        7.59877
H         14.38819      -10.55243        9.52016
H         17.01989      -10.75648        9.75122
H         16.87187      -10.92065        7.98929
H         15.49011      -12.67402       10.07514
H         16.82040      -13.13617        8.99939
H         15.21536      -12.78750        8.32890
