97

C         10.02727        0.81169        3.02713
C          9.33441        0.48206        1.89480
C         10.19841        0.27521        0.79940
C         11.51416        0.12238        1.14200
S         11.72583        0.55784        2.79171
C          9.51145        0.21675       -0.45365
O         10.00002        0.04300       -1.54748
C          8.03373        0.38342       -0.02476
C          7.94911        0.34000        1.48650
C          6.93583       -0.04836        2.29858
N          7.16611       -0.21437        3.69978
O          7.44369       -1.35130        4.10010
O          7.11133        0.80791        4.39777
N          5.65914       -0.59046        1.91983
O          4.74460       -0.56175        2.75783
O          5.52847       -1.07574        0.79205
C          7.05980        0.48856       -0.94322
C          7.19092        0.27257       -2.37383
C          7.51387       -0.89495       -2.98767
O          7.54609       -1.00133       -4.39476
C          7.18096        0.09304       -5.08372
C          6.82456        1.29048       -4.43880
C          6.45518        2.27774       -5.31459
S          6.56260        1.72139       -6.94197
C          7.09789        0.16160       -6.44773
O          6.83788        1.42217       -3.09459
C          7.75679       -2.19874       -2.41126
C          8.19140       -2.54199       -1.18863
C          8.49325       -3.82190       -0.66515
S          9.24875       -3.86386        0.89976
C          9.42025       -5.58485        0.91094
C          8.77056       -6.11385       -0.20684
C          8.33834       -5.09743       -1.11749
C          7.79392       -5.37802       -2.36974
C          7.81182       -6.71910       -2.74410
S          7.39714       -6.92199       -4.48993
C          8.80675       -6.12863       -5.31572
C         10.13888       -6.76875       -4.97711
C          8.12113       -7.75899       -1.81011
S          8.02310       -9.52052       -2.16445
C          6.43080       -9.60760       -3.03235
C          6.14473      -11.01192       -3.49640
C          8.59450       -7.47275       -0.49475
C         10.18183       -6.13521        1.98827
C         10.57113       -7.41393        1.98896
C         11.36450       -7.99816        2.99710
S         12.23664       -9.45135        2.57256
C         12.95249       -9.47973        4.06969
C         12.53834       -8.47138        4.89495
C         11.58770       -7.62830        4.31500
C         13.25892       -8.59294        6.12330
O         13.19850       -7.86847        7.11005
C         14.14716       -9.79037        5.89601
C         13.92683      -10.28637        4.66200
C         15.15957      -10.17796        6.81870
C         15.27725      -11.40172        7.35486
C         16.38973      -11.74887        8.17952
S         17.95295      -11.06765        7.84591
C         18.69538      -11.94241        9.09149
C         17.80567      -12.76204        9.74078
C         16.47606      -12.65897        9.22721
N         15.42042      -13.37320        9.71710
C         15.56852      -14.32443       10.81098
C         14.24566      -14.98727       11.15047
H          9.68318        1.16560        3.98857
H         12.34775       -0.16609        0.51235
H          6.03249        0.69749       -0.66458
H          6.12810        3.27811       -5.09168
H          7.31245       -0.60979       -7.17705
H          7.56994       -2.93672       -3.17153
H          8.38582       -1.78592       -0.47678
H          7.40923       -4.67256       -3.06769
H          8.81964       -5.05674       -5.09840
H          8.62193       -6.24029       -6.38871
H         10.40222       -6.64134       -3.92273
H         10.92681       -6.29235       -5.56944
H         10.14504       -7.83768       -5.21384
H          6.47499       -9.04958       -3.95369
H          5.62393       -9.19491       -2.41849
H          6.98199      -11.40099       -4.08646
H          5.26906      -10.98875       -4.15378
H          5.93991      -11.68039       -2.65981
H          8.77672       -8.28557        0.19130
H         10.51937       -5.46703        2.78077
H         10.35132       -8.07619        1.17111
H         11.12054       -6.78152        4.80592
H         14.45480      -11.09405        4.17034
H         15.85956       -9.37607        7.05940
H         14.52743      -12.16556        7.15831
H         19.75088      -11.82364        9.28277
H         18.11104      -13.40030       10.55831
H         14.46754      -13.08583        9.50689
H         15.95058      -13.81913       11.70568
H         16.28560      -15.10376       10.52601
H         13.51056      -14.24959       11.48695
H         14.38765      -15.71678       11.95536
H         13.83123      -15.51195       10.28413
