104

C          3.42515      -17.15975      -22.88704
C          4.06096      -17.64566      -21.77915
C          4.24462      -16.65855      -20.77719
C          3.83401      -15.40831      -21.14560
S          3.13332      -15.46030      -22.71811
C          4.77692      -17.19703      -19.55474
O          5.19453      -16.59376      -18.58820
C          4.66678      -18.69717      -19.81687
C          4.53626      -18.91463      -21.29305
C          4.94206      -19.98928      -21.98889
N          4.92554      -20.06162      -23.40768
O          6.01703      -20.13785      -23.98730
O          3.82209      -20.03276      -23.96555
N          5.63502      -21.07738      -21.39052
O          5.11528      -22.19467      -21.49412
O          6.67092      -20.82472      -20.76096
C          4.41391      -19.58853      -18.84149
C          4.32084      -19.18944      -17.48381
S          2.76917      -18.76045      -16.81297
C          3.48612      -18.31280      -15.37432
C          4.83206      -18.51857      -15.35329
C          5.33941      -19.04694      -16.55302
C          5.33464      -18.09228      -14.08519
O          6.48288      -18.14795      -13.69777
C          4.09295      -17.58009      -13.36037
C          3.02426      -17.74671      -14.17361
C          4.07491      -17.00835      -12.04029
C          5.15854      -16.88779      -11.26131
C          5.09322      -16.35220       -9.95071
S          6.30251      -16.87083       -8.80723
C          5.59413      -15.95968       -7.61180
C          4.50700      -15.24764       -8.01795
C          4.20801      -15.44261       -9.37663
C          4.00054      -14.52843       -6.87873
O          3.04977      -13.77721       -6.82236
C          4.93055      -14.95443       -5.75161
C          5.86682      -15.78923       -6.25296
C          4.75729      -14.53108       -4.39121
C          5.48539      -14.99850       -3.36647
C          5.29168      -14.61484       -1.98803
C          5.56582      -15.41814       -0.93078
O          5.39952      -14.99148        0.39344
C          4.96848      -13.72071        0.54327
C          4.71044      -12.87905       -0.55555
C          4.31292      -11.61993       -0.19022
S          4.22449      -11.48619        1.52389
C          4.73045      -13.11731        1.74946
O          4.85711      -13.29312       -1.82995
C          5.96308      -16.80833       -1.02542
C          7.06830      -17.29681       -0.44248
C          7.42275      -18.71075       -0.36387
C          8.18962      -19.08245        0.69125
C          8.61029      -20.45827        0.86042
C          9.38558      -21.05181        1.80772
C         10.09558      -20.46184        3.01492
C         11.27541      -19.51364        2.64158
N         10.93359      -18.26872        1.94918
C          9.08957      -19.83978        4.01969
N          9.67177      -19.43670        5.30810
C          9.40292      -22.47526        1.43277
C          9.97391      -23.55242        2.00072
C          9.87565      -24.95069        1.38198
C          9.01760      -25.01086        0.12508
C          8.43523      -23.93593       -0.43104
C          8.62400      -22.66280        0.20740
C          8.15698      -21.45434       -0.12966
C          7.34688      -21.03710       -1.24719
C          7.02259      -19.73299       -1.35804
C         11.25868      -25.47462        1.06539
C         11.61342      -26.76788        1.09302
H          3.07573      -17.65879      -23.78040
H          3.86281      -14.49118      -20.57035
H          4.17421      -20.62639      -19.05015
H          6.38544      -19.24903      -16.74912
H          1.99794      -17.48211      -13.96131
H          3.10157      -16.68244      -11.67680
H          6.13289      -17.24029      -11.59522
H          3.39062      -14.96622       -9.90436
H          6.66947      -16.28075       -5.72417
H          3.94354      -13.82706       -4.21593
H          6.27805      -15.72318       -3.53566
H          4.07210      -10.78275       -0.82982
H          4.82927      -13.53647        2.74078
H          5.26279      -17.46232       -1.53751
H          7.73978      -16.60634        0.06974
H          8.48288      -18.35906        1.44213
H         10.57109      -21.29182        3.55486
H         12.00199      -20.05861        2.02845
H         11.81154      -19.23044        3.55344
H         10.75216      -18.49322        0.96761
H         11.74527      -17.65183        1.92936
H          8.30444      -20.57304        4.24279
H          8.59207      -18.96902        3.58383
H         10.57887      -18.99801        5.16727
H          9.08658      -18.69775        5.70234
H         10.53506      -23.47039        2.92523
H          9.40194      -25.60265        2.12840
H          8.87507      -25.98528       -0.33431
H          7.83178      -24.01683       -1.32610
H          7.02088      -21.76522       -1.97996
H          6.42858      -19.40939       -2.20667
H         12.00351      -24.74039        0.76443
H         10.90586      -27.55174        1.34488
H         12.62415      -27.06866        0.83336
