87

C          4.52351        4.51093       -8.38279
C          4.61930        3.66504       -7.31408
C          3.74134        2.55942       -7.39770
C          2.95132        2.56444       -8.51195
S          3.31965        3.93641       -9.48855
C          3.89828        1.64722       -6.29696
O          3.14302        0.76300       -5.94992
C          5.19214        2.14257       -5.66086
C          5.40169        3.56213       -6.11172
C          6.04658        4.55025       -5.47081
N          6.01471        5.89649       -5.91664
O          6.95225        6.26016       -6.63632
O          5.04266        6.58665       -5.59382
N          6.57882        4.41016       -4.16682
O          7.79012        4.17218       -4.08245
O          5.79071        4.47794       -3.21661
C          6.09982        1.36398       -5.04296
C          6.01869       -0.05217       -4.86435
S          6.95507       -0.77542       -3.56572
C          6.47774       -2.30778       -4.01280
C          5.63746       -2.32240       -5.08198
C          5.38230       -1.04579       -5.60455
C          5.29559       -3.68568       -5.37116
O          4.59543       -4.09852       -6.27246
C          6.05016       -4.47252       -4.30880
C          6.75241       -3.60444       -3.54540
C          6.05289       -5.90605       -4.19409
C          5.05125       -6.68329       -4.63025
C          5.09540       -8.09802       -4.52021
S          4.12378       -9.04615       -5.61903
C          4.67786      -10.46198       -4.94000
C          5.55232      -10.27158       -3.91437
C          5.80494       -8.91724       -3.64513
C          5.94510      -11.56146       -3.42166
O          6.69045      -11.80437       -2.49113
C          5.19788      -12.53229       -4.32508
C          4.44454      -11.82011       -5.19291
C          5.25932      -13.96560       -4.25399
C          6.24082      -14.65752       -3.65513
C          6.31082      -16.10647       -3.61090
C          7.06768      -16.82276       -2.73749
O          7.11109      -18.22646       -2.77663
C          6.36596      -18.81321       -3.73744
C          5.60703      -18.06940       -4.65707
C          4.93460      -18.84890       -5.56171
S          5.22045      -20.51855       -5.25205
C          6.25312      -20.16639       -3.91965
O          5.56239      -16.72263       -4.62592
C          7.84661      -16.25194       -1.64747
C          8.88997      -16.86395       -1.06324
C          9.61674      -16.22101       -0.02383
S         10.92147      -15.16259       -0.45320
C         11.31962      -14.83421        1.18072
C         10.49221      -15.51228        2.03689
C          9.51157      -16.30972        1.35291
C          8.56536      -17.09913        2.01798
C          8.68860      -17.03958        3.43365
O          7.73260      -17.81848        4.05947
C          8.05598      -18.34059        5.34288
C          9.66135      -16.20685        4.10949
O          9.66116      -16.22618        5.48746
C          9.97279      -14.99853        6.13539
C         10.62101      -15.42220        3.42206
H          5.06833        5.41506       -8.62209
H          2.21066        1.83656       -8.81860
H          7.04128        1.79491       -4.71189
H          4.77062       -0.88942       -6.48312
H          7.40268       -3.84607       -2.71739
H          6.93598       -6.34116       -3.73255
H          4.16783       -6.24529       -5.09339
H          6.45973       -8.55831       -2.86090
H          3.79678      -12.20848       -5.96535
H          4.44317      -14.49559       -4.74186
H          7.06522      -14.12545       -3.18562
H          4.29423      -18.53703       -6.37415
H          6.71264      -20.96082       -3.34888
H          7.55641      -15.26097       -1.30140
H          9.23293      -17.84203       -1.38825
H         12.13893      -14.16820        1.41343
H          7.81469      -17.70887        1.53177
H          7.34873      -19.14545        5.56513
H          7.91522      -17.58579        6.12207
H          9.06336      -18.77054        5.36590
H          9.51820      -15.02793        7.13055
H          9.56179      -14.13095        5.60812
H         11.05528      -14.90478        6.26318
H         11.37741      -14.82971        3.91503
