81

C          4.80480        0.37016        4.22453
C          5.09268       -0.93788        3.94977
C          4.27356       -1.49271        2.93619
C          3.34690       -0.61536        2.44339
S          3.50757        0.91771        3.21764
C          4.61683       -2.86011        2.63225
O          3.97943       -3.67295        1.99534
C          5.93575       -3.02402        3.38669
C          6.02852       -1.93083        4.40946
C          6.70755       -1.94038        5.56519
N          6.57652       -0.91898        6.53706
O          5.67638       -1.03469        7.37653
O          7.35168        0.04215        6.44098
N          7.41046       -3.07245        6.04152
O          8.59191       -3.18461        5.69168
O          6.78430       -3.88883        6.72673
C          6.92645       -3.83867        2.97803
C          6.83695       -4.64671        1.81462
S          7.28301       -3.95349        0.27917
C          6.87548       -5.36682       -0.50209
C          6.48145       -6.36993        0.33292
C          6.48528       -5.98646        1.68752
C          6.14478       -7.51029       -0.47956
O          5.78074       -8.61477       -0.12213
C          6.32986       -7.00007       -1.89865
C          6.80975       -5.73803       -1.84904
C          6.03699       -7.77524       -3.06877
C          5.62274       -7.22499       -4.22214
C          5.30305       -7.99436       -5.35784
S          4.15806       -7.49047       -6.54509
C          4.27403       -8.97266       -7.46143
C          5.23628       -9.73166       -6.87957
C          5.78791       -9.19166       -5.73901
O          6.74422       -9.91928       -5.09801
C          6.76712      -11.02791       -5.91407
N          7.67527      -12.06084       -5.50441
O          7.71031      -13.07075       -6.21277
O          8.34544      -11.86265       -4.48122
C          5.89236      -10.97682       -7.00580
C          3.38760       -9.22932       -8.56232
S          2.93966      -10.85480       -8.97686
C          1.81869      -10.29351      -10.07229
C          1.79038       -8.93623      -10.19505
C          2.71971       -8.29709       -9.35413
C          0.76041       -8.60145      -11.13870
O          0.41121       -7.49197      -11.51919
C          0.18429       -9.95196      -11.53466
C          0.85430      -10.91743      -10.87069
C         -0.94821      -10.11407      -12.40111
C         -1.11663      -11.19136      -13.18217
C         -2.25323      -11.36125      -14.05680
C         -2.27576      -12.10125      -15.17536
C         -3.44093      -12.23991      -16.01133
C         -3.23483      -12.99101      -17.10057
C         -1.88170      -13.51094      -17.21756
S         -0.91254      -12.96226      -15.85036
C         -1.42100      -14.29991      -18.20827
C         -2.19710      -14.78597      -19.33702
C         -1.50752      -15.56364      -20.18240
C         -0.13500      -15.74968      -19.79107
S          0.23576      -14.90554      -18.31438
C          0.76456      -16.47513      -20.45978
H          5.25302        1.06306        4.92538
H          2.60922       -0.77083        1.66671
H          7.90994       -3.82339        3.43433
H          6.19868       -6.62602        2.51331
H          7.05290       -5.10295       -2.68781
H          6.12977       -8.85342       -2.94417
H          5.47069       -6.15008       -4.29267
H          5.76534      -11.74525       -7.75532
H          2.84361       -7.22319       -9.27986
H          0.66548      -11.98020      -10.90638
H         -1.65842       -9.28938      -12.42287
H         -0.37303      -11.98671      -13.18393
H         -3.15714      -10.83341      -13.75762
H         -4.38614      -11.77238      -15.77245
H         -4.01037      -13.18572      -17.82624
H         -3.24051      -14.54970      -19.48547
H         -1.92788      -16.01267      -21.07132
H          0.50740      -16.99190      -21.37788
H          1.78677      -16.57245      -20.10739
