88

C          4.47433        0.60021       -0.36365
C          3.20119        1.12934       -0.26747
S          2.14491        0.13594        0.66303
C          3.37274       -0.97182        0.96545
C          4.54943       -0.62572        0.33081
C          5.56921       -1.63569        0.53967
O          6.72306       -1.62498        0.15674
C          4.81124       -2.74785        1.25373
C          3.52231       -2.17566        1.73412
C          2.79549       -2.45191        2.84089
C          1.54994       -1.82052        3.13632
N          0.52438       -1.33867        3.39023
C          3.28427       -3.29783        3.88035
N          3.66142       -3.91734        4.78737
C          5.21876       -3.99482        0.94531
C          4.47116       -5.24585        1.06050
N          3.56682       -5.32261        2.04019
C          2.91684       -6.48574        2.17147
C          3.10621       -7.54508        1.32351
C          4.04538       -7.37336        0.32145
N          4.72322       -6.21494        0.15772
C          4.26156       -8.50074       -0.61455
C          5.32097       -8.95088       -1.31930
C          6.70714       -8.45319       -1.44500
C          7.46521       -8.60453       -2.62888
C          8.67613       -7.85489       -2.86097
N          9.33977       -7.99975       -4.03613
C          8.88577       -8.90148       -4.94687
C          7.75269       -9.64159       -4.71184
N          7.02646       -9.47752       -3.57199
C          7.25735      -10.62470       -5.63622
N          6.88168      -11.41962       -6.38746
C          9.64302       -9.00759       -6.16054
N         10.23957       -9.10368       -7.15326
C          9.19200       -6.94307       -1.91032
C          8.56020       -6.93504       -0.63277
C          7.34502       -7.77790       -0.37690
N          7.00402       -7.81591        0.92449
S          7.96873       -6.73190        1.71078
N          8.85282       -6.17778        0.43579
C         10.21436       -5.93226       -2.28903
C         11.21250       -5.33115       -1.61937
C         11.91345       -4.17342       -2.14005
C         12.56221       -3.47723       -1.19324
C         12.44887       -4.06500        0.13098
S         11.80086       -5.70187       -0.02457
C         12.69016       -3.45519        1.30847
C         13.09813       -2.07586        1.50820
C         13.04591       -1.66657        2.78637
C         12.60779       -2.69221        3.70738
S         12.43494       -4.22220        2.86827
C         12.37644       -2.50918        5.02001
C         11.96457       -3.55741        5.93106
C         12.68906       -3.92818        7.01560
C         12.15545       -5.20226        7.44122
C         12.63625       -6.09666        8.32395
C         11.98813       -7.39431        8.32493
C         12.33196       -8.54443        8.93432
C         11.42207       -9.62022        8.50772
C         10.48173       -9.10758        7.68218
C         10.81170       -7.71530        7.49988
C         10.28640       -6.79546        6.67216
C         10.99321       -5.53224        6.60698
C         10.85375       -4.51119        5.75057
C         11.51434      -11.02290        8.81996
C         12.61733      -11.74455        8.58285
H          5.28670        1.06325       -0.91062
H          2.82958        2.04899       -0.69950
H          6.16509       -4.12674        0.42032
H          2.22336       -6.53982        3.00603
H          2.54980       -8.46270        1.45703
H          3.34781       -9.08431       -0.74370
H          5.11566       -9.80416       -1.96931
H         10.04105       -5.57491       -3.30668
H         11.84519       -3.86090       -3.17292
H         13.08110       -2.54998       -1.38655
H         13.38650       -1.42526        0.69538
H         13.29344       -0.66525        3.11004
H         12.53628       -1.53137        5.46933
H         13.60297       -3.48486        7.37484
H         13.52167       -5.92285        8.91993
H         13.17488       -8.69884        9.58896
H          9.70280       -9.64110        7.16303
H          9.45996       -7.00040        6.00512
H         10.13350       -4.44448        4.94953
H         10.62895      -11.49956        9.23171
H         13.50396      -11.30231        8.13652
H         12.64778      -12.80544        8.80664
