81

C         -1.46322       -7.31867       -1.17477
O         -2.65141       -7.09440       -1.03275
C         -0.88076       -8.64197       -0.95494
C          0.46499       -8.56809       -1.26497
C          1.32110       -9.63085       -1.04914
C          0.76202      -10.81334       -0.55378
C         -0.62303      -10.91000       -0.30678
C         -1.46377       -9.80984       -0.50164
C          0.73374       -7.22677       -1.78653
O          1.81484       -6.90907       -2.24661
N         -0.42893       -6.52362       -1.60396
C         -0.56440       -5.18151       -1.88849
S         -1.22093       -4.21090       -0.64496
C         -0.99312       -2.78680       -1.55223
C         -0.47163       -3.02806       -2.81122
C         -0.25037       -1.95124       -3.82352
C         -0.18902       -4.43447       -2.98984
C          0.33661       -5.01959       -4.19332
C         -0.44131       -5.51216       -5.17166
C         -0.01166       -6.08778       -6.42980
C          1.07152       -6.84627       -6.66075
C          1.32685       -7.41762       -7.97507
C          2.42812       -7.24650       -8.72178
C          2.63792       -7.83455      -10.02626
C          3.83913       -7.56071      -10.55962
C          4.68100       -6.73103       -9.71274
S          3.78581       -6.25922       -8.26090
C          5.96242       -6.37571       -9.93425
C          6.80189       -6.76249      -11.05416
C          8.06430       -6.31303      -10.97137
C          8.32508       -5.51800       -9.79023
S          6.88403       -5.36636       -8.81906
C          9.51214       -4.96529       -9.49076
C          9.71576       -4.14078       -8.34227
S          9.46625       -2.44367       -8.49435
C          9.81996       -2.16831       -6.85208
C         10.17527       -3.31796       -6.17494
C         10.55007       -3.34485       -4.72839
C         10.11905       -4.46093       -7.05253
C         10.41164       -5.80130       -6.63281
C         11.64085       -6.33846       -6.67853
C         11.94215       -7.68217       -6.23554
C         13.15285       -8.23874       -6.39689
C         13.45517       -9.57928       -5.94409
C         14.37978      -10.43567       -6.43246
C         15.22113      -10.14541       -7.63164
O         14.98201       -9.29223       -8.47282
O         16.28851      -10.98292       -7.64225
C         17.19142      -10.88411       -8.74961
C         14.52836      -11.70189       -5.80319
N         14.62198      -12.72723       -5.26050
H          2.38580       -9.54180       -1.24052
H          1.40218      -11.67211       -0.35815
H         -1.03895      -11.84996        0.05239
H         -2.52903       -9.86505       -0.30059
H         -1.27472       -1.83246       -1.12654
H         -0.48926       -0.96511       -3.40813
H         -0.89373       -2.10604       -4.69568
H          0.79361       -1.93309       -4.14825
H          1.42009       -5.06532       -4.27496
H         -1.52424       -5.43450       -5.06973
H         -0.69663       -5.89116       -7.25369
H          1.78616       -7.07611       -5.87244
H          0.52195       -8.04098       -8.36102
H          1.88752       -8.43987      -10.51697
H          4.15012       -7.92543      -11.52924
H          6.45064       -7.37249      -11.87458
H          8.82587       -6.51365      -11.71375
H         10.36555       -5.10891      -10.14599
H          9.75652       -1.16419       -6.45559
H         10.57840       -2.33320       -4.30831
H         11.54200       -3.78735       -4.59379
H          9.82255       -3.92655       -4.15363
H          9.57047       -6.37991       -6.25737
H         12.46691       -5.74356       -7.06420
H         11.13194       -8.25015       -5.78118
H         13.94837       -7.67529       -6.88181
H         12.85417       -9.91076       -5.09435
H         18.11580      -10.41432       -8.40351
H         16.78509      -10.32507       -9.59691
H         17.42259      -11.89960       -9.08474
