94

C         -2.71034       -1.43702        0.23980
C         -2.76249       -2.47990       -0.63014
C         -1.88772       -3.60521       -0.55301
N         -1.17480       -4.51780       -0.50082
C         -3.72405       -2.54853       -1.68221
N         -4.49643       -2.60007       -2.54558
C         -1.80571       -1.30829        1.42671
C         -2.26109       -0.25016        2.21908
C         -1.63754        0.18568        3.38318
C         -0.46416       -0.48421        3.78846
C         -0.00250       -1.55756        3.01508
C         -0.65611       -1.98291        1.82725
S          1.42759       -2.24379        3.69859
C          1.45264       -1.11696        4.97656
C          0.40172       -0.23424        4.90543
C         -3.43819        0.38538        1.61922
O         -4.10901        1.25869        2.13231
C         -3.60422       -0.25399        0.26906
C         -4.30901        0.34443       -0.70775
C         -5.01095        1.62895       -0.54828
C         -6.34172        1.75775       -0.13625
C         -6.95051        3.05320        0.04568
N         -8.23835        3.13722        0.42942
C         -8.93277        1.98237        0.63879
C         -8.34723        0.74824        0.47717
N         -7.05167        0.62840        0.08588
C         -9.03923       -0.48303        0.72346
N         -9.60450       -1.47080        0.94838
C        -10.30840        2.15381        1.01360
N        -11.42563        2.30637        1.28782
C         -6.27705        4.27689       -0.16029
C         -4.92762        4.16443       -0.60677
C         -4.28326        2.81912       -0.80099
N         -3.00411        2.89356       -1.21328
S         -2.63830        4.50203       -1.34344
N         -4.08497        5.16389       -0.90881
C         -6.91116        5.69567        0.10720
O         -6.07741        6.87361       -0.12694
C         -7.19729        7.56823       -0.72292
C         -7.96187        6.24767       -0.89757
C         -9.37724        6.28538       -0.44362
C        -10.33350        6.66785       -1.30215
C        -11.73390        6.78585       -0.88653
C        -12.65071        5.72857       -0.94225
C        -14.03468        5.89990       -0.58176
N        -14.88607        4.86769       -0.79425
C        -14.39879        3.67768       -1.25056
C        -13.06233        3.49685       -1.48242
N        -12.19209        4.52892       -1.36667
C        -12.48280        2.22584       -1.79755
N        -11.98565        1.19782       -2.00897
C        -15.37004        2.65298       -1.48346
N        -16.16688        1.83458       -1.69061
C        -14.52934        7.10705       -0.01796
C        -13.62167        8.21010        0.01474
C        -12.20188        8.04907       -0.44361
N        -11.49488        9.19087       -0.38000
S        -12.50436       10.35089        0.23171
N        -13.89012        9.46445        0.41955
C        -15.91670        7.36830        0.44972
C        -16.82028        6.53682        0.99562
C        -16.81055        5.10793        1.29777
C        -15.90493        4.44360        2.05224
C        -16.01538        3.05252        2.32792
N        -16.09019        1.90980        2.51088
C        -14.81259        5.12521        2.66288
N        -13.93161        5.70352        3.14869
C        -18.14765        4.60133        0.91436
C        -19.02685        5.68855        0.92986
C        -18.26508        6.95207        1.05917
O        -18.71761        8.07416        1.12868
C        -20.39527        5.56050        0.74482
C        -20.89609        4.26815        0.45262
C        -19.99280        3.20200        0.32109
C        -18.60544        3.34490        0.55166
S        -20.79863        1.74921       -0.14340
C        -22.32967        2.49115       -0.08250
C        -22.24566        3.82379        0.24515
H         -2.03011        1.03148        3.94059
H         -0.21937       -2.80208        1.26842
H          2.23779       -1.15100        5.71985
H          0.25232        0.56347        5.62363
H         -4.34093       -0.02887       -1.72488
H         -7.25261        5.74550        1.15331
H         -6.92354        8.07446       -1.65300
H         -7.61768        8.29662       -0.02063
H         -7.85197        5.82208       -1.90388
H         -9.60453        6.04473        0.59182
H        -10.11527        6.92662       -2.33492
H        -16.24725        8.39589        0.26863
H        -21.04994        6.42492        0.80400
H        -17.95036        2.48869        0.42757
H        -23.21967        1.91494       -0.29473
H        -23.11568        4.46330        0.33065
