119

C         -3.31623       -0.06746        2.42840
C         -2.44802        0.28242        3.40854
C         -1.42088       -0.58196        3.87082
N         -0.58442       -1.29076        4.25188
C         -2.45236        1.57743        4.01360
N         -2.46540        2.62300        4.51055
C         -3.30685       -1.33389        1.63563
C         -4.05969       -1.13299        0.47499
C         -4.29505       -2.10995       -0.48416
C         -3.74576       -3.39018       -0.25991
C         -2.99317       -3.60671        0.90300
C         -2.76409       -2.59169        1.86865
S         -2.42390       -5.23501        0.97948
C         -3.17136       -5.64918       -0.49448
C         -3.84409       -4.58589       -1.04742
C         -4.63642        0.21708        0.45654
O         -5.21377        0.72445       -0.48107
C         -4.35265        0.78898        1.81497
C         -5.07690        1.76736        2.37828
C         -6.13658        2.44012        1.71616
S         -5.81191        3.97742        1.05196
C         -7.44526        4.22315        0.56764
C         -8.22258        3.13155        0.91573
C         -7.46477        2.09543        1.54461
S         -8.16092        0.56203        2.08816
C         -9.62495        0.53635        1.15429
O         -9.98338       -0.29963        0.35155
C        -10.42373        1.72296        1.64720
O        -11.25803        1.71994        2.53018
S         -9.96860        3.03949        0.61545
C         -7.83603        5.45536       -0.02774
C         -7.04123        6.10378       -0.89074
C         -7.38506        7.39131       -1.48827
C         -6.88780        7.67242       -2.76722
C         -7.15196        8.91001       -3.32511
C         -7.87814        9.87425       -2.59619
C         -8.36794        9.61196       -1.32973
C         -8.11259        8.36385       -0.77438
C         -7.90957       11.10433       -3.33768
C         -7.19900       10.93932       -4.54333
C         -6.68902        9.48718       -4.67047
C         -5.14831        9.42878       -4.84452
C         -4.32711       10.00300       -3.68801
C         -7.44499        8.82475       -5.86054
C         -7.06430        7.38932       -6.21363
C         -7.01338       12.01362       -5.40161
C         -7.51150       13.26944       -5.02111
C         -8.26426       13.40235       -3.83494
C         -8.46127       12.32058       -2.98346
C         -7.21109       14.43196       -5.86251
C         -7.00595       15.65172       -5.34252
C         -6.65237       16.73952       -6.17620
S         -7.90495       17.64686       -6.92337
C         -6.80466       18.74109       -7.67098
C         -5.50385       18.41996       -7.35039
C         -5.41700       17.26532       -6.49303
C         -4.21027       16.72006       -6.03631
C         -3.07539       17.41626       -6.52057
C         -1.70189       16.90189       -6.17191
C         -3.17495       18.56844       -7.37578
C         -4.39353       19.12833       -7.82147
C         -7.35271       19.74109       -8.50864
C         -7.69301       20.93627       -8.00578
C         -8.34297       21.98172       -8.75853
C         -8.69960       21.90598      -10.06461
C         -9.27276       23.17534      -10.41445
C         -9.71032       23.62839      -11.60066
C        -10.15113       25.00484      -11.61990
C        -10.55374       25.77863      -12.64284
C        -10.85256       27.13357      -12.15023
C        -10.68976       27.15907      -10.80693
C        -10.20499       25.85699      -10.42199
C         -9.79727       25.38855       -9.22913
C         -9.28803       24.03224       -9.22423
C         -8.73344       23.30618       -8.24181
C        -11.29732       28.27231      -12.91399
C        -10.97625       28.47761      -14.19768
H         -4.90783       -1.89790       -1.35612
H         -2.20003       -2.84094        2.76013
H         -3.08756       -6.65363       -0.88672
H         -4.39102       -4.65507       -1.98058
H         -4.91241        2.09011        3.40025
H         -8.81608        5.84997        0.22789
H         -6.08358        5.69292       -1.20196
H         -6.28606        6.94222       -3.29862
H         -8.90558       10.36339       -0.76236
H         -8.45820        8.17179        0.23823
H         -4.86426        9.96131       -5.76118
H         -4.82278        8.39005       -4.97953
H         -4.64772       11.01075       -3.41084
H         -3.27095       10.05706       -3.97311
H         -4.38840        9.36372       -2.80139
H         -7.29348        9.42534       -6.76764
H         -8.52628        8.84490       -5.66568
H         -6.05817        7.33376       -6.63934
H         -7.75788        7.00120       -6.96811
H         -7.12036        6.71608       -5.35700
H         -6.45789       11.88966       -6.32603
H         -8.68790       14.36177       -3.54765
H         -9.00754       12.44695       -2.05543
H         -7.10216       14.24962       -6.92899
H         -7.07316       15.85133       -4.27791
H         -4.13611       15.85060       -5.39533
H         -1.74471       16.17263       -5.35619
H         -1.05597       17.72366       -5.84723
H         -1.25630       16.41480       -7.04518
H         -2.25097       19.04405       -7.70979
H         -4.43318       20.00112       -8.45997
H         -7.53534       19.46893       -9.54221
H         -7.49959       21.15967       -6.95734
H         -8.56887       21.08614      -10.75012
H         -9.70083       23.03294      -12.50356
H        -10.63682       25.47927      -13.67548
H        -10.83217       27.99248      -10.13960
H         -9.80230       25.98025       -8.32393
H         -8.57084       23.62351       -7.22350
H        -11.90534       29.00872      -12.39373
H        -10.34407       27.79037      -14.75162
H        -11.32487       29.36200      -14.71993
