116

C         -8.76885        0.41219       -5.65594
C        -10.09491        0.15790       -5.74839
C        -10.64359       -0.67095       -6.76890
N        -11.09101       -1.34078       -7.59379
C        -11.05311        0.64288       -4.80201
N        -11.83797        1.03557       -4.03883
C         -7.67875       -0.15663       -6.51588
C         -6.46247        0.01847       -5.85246
C         -5.22465       -0.36683       -6.34868
C         -5.19045       -0.93286       -7.63644
C         -6.39653       -1.09841       -8.33211
C         -7.65687       -0.72534       -7.78528
S         -6.11106       -1.77839       -9.89493
C         -4.42337       -1.82797       -9.65615
C         -4.06565       -1.36355       -8.41415
C         -6.64204        0.77733       -4.61644
O         -5.74860        1.06874       -3.84892
C         -8.09118        1.16810       -4.58189
C         -8.54811        2.13558       -3.76903
C         -7.71182        2.89728       -2.75814
C         -8.19420        4.32718       -2.56262
N         -8.64044        5.07708       -3.57849
S         -9.05399        6.54495       -2.88169
N         -8.66458        6.24032       -1.28131
C         -8.14584        5.00657       -1.28493
C         -7.55517        4.38888       -0.04682
C         -7.58336        2.88850       -0.14608
C         -7.66624        2.18263       -1.41217
N         -7.61714        0.84837       -1.30468
S         -7.47075        0.54274        0.33393
N         -7.50288        2.10552        0.93573
C         -6.09144        4.83613       -0.07983
C         -5.08028        4.10717       -0.73556
C         -3.79351        4.60350       -0.77263
C         -3.46345        5.82322       -0.15977
C         -4.43545        6.57260        0.47602
C         -5.74541        6.07792        0.51237
C         -2.04281        6.04027       -0.29791
C         -1.47826        4.95432       -0.99953
C         -2.55957        3.94269       -1.38402
C         -2.30863        2.53924       -0.75462
C         -2.31539        2.48133        0.77426
C         -2.67987        3.79435       -2.92938
C         -3.05442        5.06269       -3.69660
C         -0.11647        4.89060       -1.23891
C          0.71226        5.89861       -0.72334
C          0.13466        6.99605       -0.04886
C         -1.24730        7.07238        0.16406
C          2.17471        5.82648       -0.87892
C          2.83258        4.65693       -0.91014
C          4.26999        4.53567       -1.03517
C          4.99424        3.48537       -0.61702
C          6.42388        3.36289       -0.76731
C          6.92918        2.22610       -0.26498
C          5.93400        1.34862        0.32198
S          4.34179        2.10833        0.22909
C          6.13505        0.12457        0.84648
C          7.38217       -0.60783        0.95339
C          7.25589       -1.83119        1.49563
C          5.89815       -2.16648        1.87125
S          4.82714       -0.84740        1.48517
C          5.50394       -3.33920        2.39882
C          4.14345       -3.71713        2.74845
C          3.68168       -4.99322        2.70035
C          2.27236       -4.94101        3.01808
C          1.32609       -5.89631        3.00365
C         -0.02502       -5.45704        3.29744
C         -1.18938       -6.12995        3.28002
C         -2.29948       -5.21593        3.60349
C         -1.79488       -3.99064        3.87554
C         -0.37146       -4.07329        3.65832
C          0.57923       -3.12516        3.69952
C          1.91524       -3.55996        3.34959
C          3.04394       -2.85326        3.22491
C         -3.70533       -5.52825        3.67486
C         -4.28591       -6.47549        2.92751
H         -4.31740       -0.18897       -5.77790
H         -8.54607       -0.85916       -8.39140
H         -3.76832       -2.19407      -10.43516
H         -3.03791       -1.31347       -8.07288
H         -9.57792        2.47328       -3.82392
H         -6.68726        3.01499       -3.13022
H         -8.06160        4.72407        0.86530
H         -5.24647        3.14361       -1.20286
H         -4.19438        7.52046        0.94497
H         -6.51053        6.67860        1.00384
H         -1.34873        2.14139       -1.10766
H         -3.07619        1.83665       -1.10850
H         -1.62109        3.20174        1.21461
H         -2.01918        1.48230        1.11115
H         -3.31511        2.67053        1.17882
H         -3.43337        3.03222       -3.17001
H         -1.73040        3.42156       -3.33650
H         -4.07685        5.37947       -3.46809
H         -3.00667        4.87379       -4.77459
H         -2.37506        5.89101       -3.47736
H          0.29145        4.05630       -1.79983
H          0.76170        7.79326        0.34445
H         -1.67757        7.91069        0.70103
H          2.71176        6.76998       -0.89962
H          2.28118        3.72200       -0.82388
H          4.77271        5.36831       -1.52069
H          7.01880        4.12644       -1.24770
H          7.97998        1.98044       -0.30096
H          8.32655       -0.20944        0.61217
H          8.08115       -2.51651        1.63343
H          6.24699       -4.12042        2.54722
H          4.21939       -5.88013        2.40755
H          1.52754       -6.92700        2.74775
H         -1.31999       -7.17441        3.04774
H         -2.33575       -3.09904        4.14755
H          0.37682       -2.08706        3.92815
H          3.12801       -1.79430        3.40349
H         -4.31376       -4.93564        4.35462
H         -3.72205       -7.06555        2.21155
H         -5.35114       -6.66489        2.99818
