126

C         -3.53559       -2.08504        0.36242
C         -2.41354       -2.41181       -0.32549
C         -1.78524       -3.68127       -0.20491
N         -1.26485       -4.71670       -0.09795
C         -1.79102       -1.53873       -1.26919
N         -1.27730       -0.81902       -2.01684
C         -4.32638       -2.97000        1.27036
C         -5.57774       -2.38634        1.48573
C         -6.57184       -2.93993        2.28579
C         -6.28384       -4.16024        2.93671
C         -5.02460       -4.74482        2.74446
C         -4.02889       -4.16466        1.91693
S         -4.87481       -6.21232        3.64097
C         -6.44862       -6.07518        4.27759
C         -7.09068       -4.94637        3.82683
C         -5.66598       -1.08091        0.81648
O         -6.64555       -0.36520        0.78336
C         -4.29884       -0.82947        0.24208
C         -3.88838        0.39296       -0.12815
C         -4.74571        1.57811       -0.11813
C         -5.51815        1.97530       -1.20967
C         -6.35259        3.14335       -1.16078
N         -7.07029        3.44906       -2.27210
C         -6.97336        2.67352       -3.38448
C         -6.17028        1.56536       -3.40616
N         -5.43670        1.21217       -2.32432
C         -6.04794        0.71711       -4.55170
N         -5.96737        0.03778       -5.49020
C         -7.72623        3.10228       -4.52546
N         -8.31276        3.43668       -5.47021
C         -6.43341        3.98182       -0.00210
C         -5.64303        3.57330        1.12832
C         -4.79545        2.34603        1.06597
N         -4.12920        2.08725        2.20641
S         -4.53647        3.27717        3.27669
N         -5.52316        4.18859        2.32021
C         -7.24531        5.23144        0.06282
C         -7.46170        6.02751       -1.08409
C         -8.20159        7.19827       -1.00591
C         -8.69238        7.63564        0.23511
C         -8.50445        6.89296        1.38059
C         -7.80876        5.68920        1.28040
C         -9.31081        8.92238        0.08007
C         -9.22602        9.31408       -1.27146
C         -8.53731        8.21402       -2.11091
C         -7.27322        8.75405       -2.83466
C         -6.15373        9.29385       -1.93907
C         -9.59855        7.65466       -3.11468
C         -9.15648        6.56279       -4.08600
C         -9.71140       10.54868       -1.67170
C        -10.25512       11.39761       -0.69686
C        -10.34933       10.99114        0.64720
C         -9.87677        9.74249        1.04184
C        -10.70391       12.73188       -1.07686
C        -11.96115       12.95584       -1.48157
C        -12.35542       14.26676       -1.85575
S        -12.16824       14.76083       -3.49625
C        -12.75723       16.35468       -3.19646
C        -13.15964       16.47197       -1.88006
C        -12.91464       15.28508       -1.11235
C        -13.20757       15.16744        0.25263
C        -13.74608       16.34752        0.83835
C        -14.06899       16.31707        2.28497
C        -13.40905       15.59387        3.20127
C        -14.01690       17.53851        0.05558
C        -14.60297       18.77933        0.69898
C        -13.73374       17.62693       -1.33827
C        -12.79114       17.27527       -4.27822
C        -11.73391       18.05946       -4.54406
C        -11.73197       19.01601       -5.62648
C        -12.57797       20.04424       -5.77344
C        -13.70209       20.53930       -4.97030
C        -13.70180       20.79050       -3.63900
C        -14.84350       21.27945       -2.93626
N        -15.78113       21.64549       -2.35593
C        -12.50073       20.72616       -2.87222
N        -11.52682       20.74985       -2.24240
C        -14.67411       21.12631       -5.93097
C        -13.99488       21.33118       -7.13883
C        -12.65994       20.71101       -7.10546
O        -11.84105       20.70630       -7.99917
C        -14.52107       22.03264       -8.21030
C        -15.81144       22.58082       -8.05205
C        -16.52609       22.31376       -6.87258
C        -15.98797       21.55397       -5.80624
S        -18.08464       23.05808       -6.90988
C        -17.77393       23.77593       -8.40474
C        -16.55772       23.43482       -8.93092
Br       -18.97534       24.93183       -9.25628
H         -7.52365       -2.43531        2.42109
H         -3.06896       -4.66075        1.84001
H         -6.82927       -6.82775        4.95492
H         -8.09917       -4.68506        4.12549
H         -2.87131        0.61760       -0.42589
H         -7.03988        5.75872       -2.04537
H         -8.86855        7.23287        2.34398
H         -7.69784        5.12484        2.20321
H         -7.56553        9.55916       -3.52105
H         -6.83235        7.96519       -3.45604
H         -6.50487       10.08091       -1.26591
H         -5.35978        9.72419       -2.56043
H         -5.69491        8.50153       -1.33920
H         -9.98780        8.47846       -3.72838
H        -10.46123        7.26487       -2.55676
H         -8.45163        6.93903       -4.83326
H        -10.02730        6.17894       -4.63237
H         -8.70861        5.71300       -3.57188
H         -9.65554       10.85882       -2.71022
H        -10.77669       11.65289        1.39691
H         -9.93242        9.43624        2.08097
H         -9.95589       13.51866       -1.02278
H        -12.69800       12.15978       -1.53170
H        -13.03512       14.25955        0.81511
H        -14.89659       16.93715        2.61853
H        -12.56050       14.96464        2.95395
H        -13.70391       15.62505        4.24554
H        -15.59311       18.56779        1.11404
H        -14.72875       19.58679       -0.03125
H        -13.93840       19.15448        1.48359
H        -13.94831       18.51559       -1.90614
H        -13.68947       17.30429       -4.88870
H        -10.80471       17.97175       -3.98134
H        -11.00047       18.81032       -6.41144
H        -13.93544       22.18772       -9.11202
H        -16.59051       21.38014       -4.92127
H        -16.18659       23.79227       -9.88381
