103

C         -0.38628        1.33571       -0.27008
C          0.90975        1.61627       -0.55052
C          1.96637        0.68648       -0.34116
N          2.83008       -0.06831       -0.16641
C          1.30449        2.85649       -1.13662
N          1.61965        3.86854       -1.60466
C         -0.93096        0.02209        0.20798
C         -2.30753        0.01943       -0.03472
C         -3.16206       -1.01103        0.33159
C         -2.60696       -2.12021        1.00368
C         -1.22512       -2.14615        1.23698
C         -0.36359       -1.08143        0.84713
S         -0.77137       -3.60619        2.04711
C         -2.38144       -4.16566        2.11933
C         -3.25770       -3.27920        1.54208
C         -2.74814        1.29190       -0.62571
O         -3.85226        1.52950       -1.07018
C         -1.56442        2.20563       -0.53548
C         -1.69436        3.54602       -0.47898
C         -2.96583        4.30422       -0.57903
C         -3.53880        4.73936       -1.77637
C         -4.83046        5.39714       -1.83368
N         -5.34380        5.68117       -3.05024
C         -4.60561        5.44298       -4.16638
C         -3.36316        4.87767       -4.08533
N         -2.82434        4.51757       -2.89785
C         -2.57810        4.57771       -5.23842
N         -1.96530        4.33415       -6.19150
C         -5.19838        5.85578       -5.40196
N         -5.67723        6.22342       -6.39786
C         -5.56885        5.75762       -0.67948
C         -4.94978        5.42300        0.57052
C         -3.64392        4.65718        0.61284
N         -3.23198        4.37476        1.86220
S         -4.33503        5.04529        2.89475
N         -5.37778        5.72208        1.81088
C         -6.91670        6.42690       -0.71257
S         -8.10758        5.93027        0.44312
C         -9.25706        7.07495       -0.06944
C         -8.87791        7.66469       -1.25369
C         -7.48183        7.38649       -1.56504
C         -6.83285        8.09660       -2.72715
F         -5.58444        8.53150       -2.39921
C         -7.63675        9.29753       -3.23754
C         -9.10195        8.91572       -3.42349
C         -9.74109        8.59037       -2.07453
F        -10.95217        8.01442       -2.32927
C        -10.37855        7.35003        0.75052
C        -11.55237        6.71800        0.60621
C        -12.76321        6.89277        1.45219
C        -13.95744        6.17686        1.18296
C        -15.11924        6.27461        2.02829
N        -16.21548        5.52806        1.74065
C        -16.22586        4.74467        0.62951
C        -15.13341        4.67953       -0.19303
N        -14.00038        5.37193        0.09160
C        -15.13498        3.91674       -1.40119
N        -15.18434        3.28799       -2.37721
C        -17.46691        4.07538        0.34901
N        -18.47652        3.56889        0.12032
C        -15.17621        7.13712        3.14378
C        -13.99750        7.87178        3.45182
C        -12.77122        7.74850        2.59876
N        -11.76603        8.50507        3.07233
S        -12.29629        9.29819        4.41309
N        -13.83511        8.70979        4.49175
C        -16.30669        7.26936        4.09039
C        -17.62952        7.22742        3.86720
C        -18.46256        7.06163        2.67250
C        -18.33675        7.71292        1.49221
C        -19.21837        7.50123        0.39698
N        -19.89983        7.31021       -0.52267
C        -17.28734        8.64918        1.25258
N        -16.40103        9.36438        1.03637
C        -19.59008        6.18403        3.08356
C        -19.65355        6.17982        4.48066
C        -18.50588        6.91370        5.04667
O        -18.28478        7.12040        6.22089
C        -20.59752        5.46529        5.20627
C        -21.51434        4.66877        4.48082
C        -21.41372        4.62382        3.08282
C        -20.45860        5.37874        2.36081
S        -22.57404        3.54179        2.40459
C        -23.23443        3.17382        3.93016
C        -22.58413        3.83219        4.94687
H         -4.22835       -0.94084        0.14271
H          0.69110       -1.15458        1.09101
H         -2.61726       -5.11492        2.58285
H         -4.32783       -3.44622        1.50050
H         -0.84440        4.18642       -0.26363
H         -6.75524        7.40802       -3.56792
H         -7.21109        9.63107       -4.19122
H         -7.54601       10.14313       -2.54527
H         -9.18418        8.04737       -4.09178
H         -9.65766        9.72458       -3.91051
H         -9.93021        9.51546       -1.51823
H        -10.19957        8.10524        1.50391
H        -11.64358        5.98596       -0.19712
H        -15.97880        7.33027        5.13317
H        -20.60234        5.49167        6.29211
H        -20.41194        5.27259        1.28229
H        -24.06624        2.48747        4.00988
H        -22.85793        3.71979        5.98890
