114

C        -11.21822       -8.46966       -8.43123
C        -11.41252       -9.55609       -7.64326
C        -10.54639      -10.68305       -7.65127
N         -9.84424      -11.61387       -7.65315
C        -12.45785       -9.64918       -6.67735
N        -13.30932       -9.77254       -5.90140
C        -10.05082       -8.26125       -9.34371
C         -9.94604       -6.89988       -9.62817
C         -8.92541       -6.34171      -10.39311
C         -7.95017       -7.21233      -10.92994
C         -8.07963       -8.58762      -10.69779
C         -9.13090       -9.13379       -9.91808
S         -6.81745       -9.47456      -11.47303
C         -6.08759       -8.05850      -12.07600
C         -6.78664       -6.92833      -11.72359
C        -11.08078       -6.15911       -9.05806
O        -11.25637       -4.96356       -9.17993
C        -11.95694       -7.18304       -8.38455
C        -13.17763       -6.89521       -7.90186
C        -13.80473       -5.58653       -7.88427
C        -14.22200       -4.94507       -6.78098
C        -14.80847       -3.62644       -6.78253
C        -14.96930       -3.10515       -5.55761
C        -14.52789       -3.97774       -4.48434
S        -14.05992       -5.54882       -5.15021
C        -14.38671       -3.63984       -3.18816
C        -14.58372       -2.32800       -2.59210
C        -13.94934       -2.17877       -1.41488
C        -13.18482       -3.35715       -1.04389
S        -13.76482       -4.72869       -1.96049
C        -12.12003       -3.33866       -0.22063
C        -11.14462       -4.38754       -0.09244
S        -10.52939       -5.18772       -1.47856
C         -9.41155       -6.16132       -0.63532
C         -9.43021       -5.80635        0.71462
C        -10.44768       -4.81156        1.02858
C        -10.65934       -4.30273        2.43219
C        -10.03372       -5.21796        3.49002
C         -8.58738       -5.55427        3.10780
N         -7.93948       -6.30661        4.18725
C         -8.56076       -6.37784        1.80685
C         -8.62250       -7.18617       -1.33798
S         -8.10792       -8.59182       -0.48173
C         -7.20460       -9.24222       -1.78800
C         -7.45987       -8.50580       -2.93501
C         -8.23472       -7.31243       -2.67286
S         -8.59987       -6.16420       -3.98176
C         -8.66603       -7.27087       -5.30622
O         -9.62858       -7.66519       -5.93075
C         -7.22313       -7.62680       -5.55138
O         -6.49844       -7.12953       -6.38954
S         -6.90681       -9.00597       -4.55442
C         -6.42072      -10.40650       -1.50397
C         -5.25735      -10.67432       -2.11664
C         -4.46083      -11.85663       -1.77583
C         -3.46160      -11.77900       -0.79367
C         -2.69822      -12.91227       -0.53746
C         -2.92323      -14.11496       -1.24831
C         -3.92556      -14.20114       -2.19905
C         -4.69475      -13.06450       -2.46201
C         -1.93692      -15.09636       -0.85254
C         -1.07742      -14.52276        0.10277
C         -1.55425      -13.11230        0.46555
C         -0.40491      -12.07628        0.32130
C          0.23489      -11.96812       -1.06267
C         -2.08657      -13.09358        1.93161
C         -3.26804      -14.02045        2.23592
C          0.04329      -15.20115        0.56181
C          0.32173      -16.47488        0.04978
C         -0.59279      -17.07676       -0.83959
C         -1.72381      -16.38835       -1.29829
C          1.54340      -17.20055        0.42630
C          2.70866      -16.59992        0.70660
H         -8.88685       -5.27060      -10.56987
H         -9.17869      -10.21015       -9.80027
H         -5.18125       -8.12046      -12.66329
H         -6.47945       -5.93193      -12.01763
H        -13.80607       -7.65921       -7.45429
H        -13.89650       -5.09690       -8.85203
H        -15.06607       -3.10866       -7.69580
H        -15.37036       -2.11758       -5.38449
H        -15.12774       -1.53276       -3.08078
H        -13.92047       -1.25281       -0.85716
H        -11.89224       -2.42005        0.31546
H        -11.72958       -4.19329        2.64181
H        -10.20655       -3.30608        2.51116
H        -10.62236       -6.14190        3.57681
H        -10.07504       -4.72060        4.46653
H         -8.03108       -4.61954        2.95852
H         -6.97265       -6.50871        3.93377
H         -7.90549       -5.74119        5.03393
H         -8.92285       -7.39051        2.02450
H         -7.52300       -6.44631        1.45889
H         -6.75711      -11.06652       -0.70458
H         -4.82648      -10.04581       -2.88865
H         -3.27881      -10.85225       -0.25882
H         -4.10190      -15.12016       -2.74736
H         -5.47013      -13.11986       -3.22375
H          0.39503      -12.31971        1.03440
H         -0.76655      -11.07986        0.60436
H          0.66167      -12.91915       -1.39503
H          1.05249      -11.23902       -1.03420
H         -0.48333      -11.62747       -1.81342
H         -2.39062      -12.07328        2.19931
H         -1.27077      -13.36172        2.61640
H         -4.17953      -13.68580        1.73062
H         -3.47448      -14.02098        3.31152
H         -3.06974      -15.05586        1.94403
H          0.70431      -14.73119        1.28236
H         -0.40982      -18.08135       -1.21524
H         -2.39603      -16.85416       -2.01065
H          1.48516      -18.28580        0.43383
H          2.83252      -15.52169        0.67412
H          3.58670      -17.18428        0.96062
