99

C         -3.13891       -1.66180        0.36185
C         -3.04588       -2.44546        1.46502
C         -2.66942       -3.81557        1.40567
N         -2.37556       -4.93841        1.35479
C         -3.27184       -1.92741        2.77265
N         -3.47312       -1.49370        3.83150
C         -2.80347       -2.03860       -1.04280
C         -2.60651       -0.86008       -1.77202
C         -2.35748       -0.82737       -3.13778
C         -2.30787       -2.06076       -3.82652
C         -2.48313       -3.24793       -3.10089
C         -2.73962       -3.26086       -1.70456
S         -2.35725       -4.62936       -4.13044
C         -2.11363       -3.67180       -5.51851
C         -2.12740       -2.32884       -5.22581
C         -2.83369        0.32301       -0.92117
O         -2.57739        1.47662       -1.19375
C         -3.45550       -0.21673        0.32732
C         -4.38508        0.44971        1.03405
C         -4.92996        1.79046        0.73936
C         -4.43199        3.00119        1.23982
C         -5.10491        4.26136        1.00562
N         -4.55624        5.39510        1.47692
C         -3.43871        5.32344        2.25086
C         -2.81642        4.12303        2.48419
N         -3.30319        2.95860        1.97909
C         -1.60600        4.01752        3.24662
N         -0.62156        3.95649        3.85134
C         -2.98120        6.56510        2.81435
N         -2.58811        7.55180        3.27180
C         -6.33186        4.36880        0.31168
C         -6.83335        3.15509       -0.25029
C         -6.12220        1.84881       -0.03039
N         -6.74556        0.80612       -0.60838
S         -8.08412        1.40258       -1.37513
N         -7.94363        3.00771       -0.99871
C         -7.10110        5.62190        0.12402
C         -7.21150        6.72539        0.88847
C         -8.10687        7.63583        0.24199
C         -8.60484        7.01418       -0.98555
O         -9.40779        7.44296       -1.78273
N         -7.92929        5.79574       -0.98247
C         -8.16693        8.70639        1.01056
O         -7.38314        8.63254        2.18043
C         -6.80403        7.36951        2.15276
O         -6.14186        6.88745        3.05256
C         -8.94323        9.86669        0.80377
S        -10.54381        9.91881        1.45000
C        -10.84989       11.52860        0.89065
C         -9.71103       12.02826        0.28862
C         -8.63894       11.07242        0.20037
C         -7.40148       11.36201       -0.39969
C         -7.29778       12.68937       -0.92163
C         -6.01001       13.01971       -1.56225
C         -5.75131       12.83493       -2.86404
C         -8.36633       13.65234       -0.80588
C         -8.30361       15.07239       -1.32327
C         -9.60259       13.34167       -0.17770
C        -12.13598       12.08696        1.15324
C        -12.74589       12.93574        0.30882
C        -14.02978       13.55407        0.53703
C        -14.83423       13.30013        1.59601
C        -16.04293       14.03836        1.38426
C        -17.17702       14.03726        2.10063
C        -18.25705       14.81673        1.55015
C        -19.53367       14.92432        1.95049
C        -20.27039       15.78400        1.01184
C        -19.41353       16.26321        0.08072
C        -18.13701       15.64152        0.33781
C        -16.98627       15.66472       -0.35992
C        -15.92356       14.81651        0.14675
C        -14.71122       14.52160       -0.34914
C        -21.67661       16.09044        1.04049
C        -22.58495       15.24241        1.54082
H         -2.24903        0.11834       -3.66047
H         -2.91198       -4.21328       -1.21516
H         -1.97633       -4.13608       -6.48613
H         -2.00718       -1.56133       -5.98129
H         -4.94969       -0.05430        1.81427
H         -8.10989        5.07867       -1.67780
H         -6.58889       10.64908       -0.46619
H         -5.22452       13.38116       -0.90244
H         -6.49602       12.47638       -3.56719
H         -4.75900       13.03975       -3.25942
H         -7.36548       15.34052       -1.80898
H         -8.46625       15.76741       -0.48958
H         -9.11227       15.22338       -2.05010
H        -10.37279       14.09547       -0.07523
H        -12.62622       11.77883        2.07212
H        -12.28987       13.19945       -0.64260
H        -14.66327       12.63619        2.42583
H        -17.30780       13.45401        3.00159
H        -19.98010       14.43326        2.80029
H        -19.64060       16.90794       -0.75200
H        -16.85796       16.23110       -1.27227
H        -14.28677       14.89945       -1.26682
H        -21.99696       17.03025        0.59858
H        -22.29830       14.27927        1.95368
H        -23.64178       15.47911        1.52425
