98

C         -4.41278       -1.25779        2.71947
C         -4.40433       -1.95047        3.87925
C         -4.31233       -3.37207        3.91274
N         -4.23302       -4.52976        3.92356
C         -4.37248       -1.28953        5.14065
N         -4.34761       -0.74362        6.16205
C         -4.26699       -1.82804        1.35376
C         -3.65765       -0.86206        0.54764
C         -3.43369       -1.02864       -0.81144
C         -3.85757       -2.24582       -1.39741
C         -4.46885       -3.21538       -0.58735
C         -4.68889       -3.02672        0.79719
S         -4.91229       -4.61170       -1.49908
C         -4.28583       -3.95954       -2.93819
C         -3.78555       -2.69079       -2.75866
C         -3.41397        0.35861        1.34241
O         -2.60487        1.23494        1.12359
C         -4.29504        0.20288        2.55020
C         -5.02287        1.17406        3.13922
C         -5.15034        2.61190        2.76597
C         -5.39019        3.63821        3.70528
C         -5.51732        5.03129        3.32366
N         -5.77562        5.96581        4.26710
C         -5.91084        5.57353        5.56023
C         -5.78016        4.25535        5.92515
N         -5.52156        3.28575        5.00625
C         -5.92774        3.82022        7.28208
N         -6.06451        3.51043        8.39257
C         -6.21346        6.61817        6.49209
N         -6.46610        7.45895        7.25160
C         -5.37655        5.47969        1.99254
C         -5.10847        4.47526        1.03340
C         -5.11363        3.02260        1.40558
N         -5.14393        2.23138        0.31809
S         -4.76126        3.18399       -0.97253
N         -4.76116        4.65373       -0.24863
C         -5.41002        6.92415        1.62451
C         -5.79840        7.57890        0.51860
C         -5.57904        9.00394        0.34840
C         -5.63536        9.39972       -0.93262
C         -5.89786        8.30667       -1.85884
S         -6.53267        6.94310       -0.94022
C         -5.55270        8.27656       -3.16330
C         -4.85274        9.34036       -3.86236
C         -4.30619        8.96308       -5.02627
C         -4.57039        7.58557       -5.37901
S         -5.69120        6.86901       -4.22735
C         -4.01779        6.97870       -6.44713
C         -4.37003        5.65732       -6.84337
C         -3.93336        4.40744       -6.39066
C         -2.71281        4.23497       -5.66904
N         -1.65832        4.09802       -5.20620
C         -4.89190        3.44446       -6.74864
C         -5.72627        3.86450       -7.72706
S         -5.53269        5.46879       -8.13337
S         -6.87493        2.73225       -8.20607
C         -6.43265        1.80703       -6.87274
C         -5.33196        2.23178       -6.21832
C         -5.07315        1.52357       -5.02663
C         -3.96208        1.67358       -4.13898
N         -3.07395        1.74388       -3.39879
C         -6.22878        0.79487       -4.67177
S         -7.25133        0.59887       -6.08717
C         -6.70856        0.48569       -3.34871
C         -7.79957       -0.22487       -3.02282
C         -8.69913       -1.15008       -3.71600
C         -8.33525       -2.22225       -4.45623
C         -9.27239       -3.19344       -4.90731
N        -10.03459       -3.98400       -5.26632
C         -6.98764       -2.47220       -4.84237
N         -5.91406       -2.64630       -5.24744
C        -10.07673       -0.81437       -3.26998
C         -9.99888        0.02798       -2.15954
C         -8.58369        0.32386       -1.84962
O         -8.17699        0.97528       -0.91165
C        -11.11434        0.61128       -1.56424
C        -12.38564        0.33803       -2.13101
C        -12.45823       -0.50499       -3.24851
C        -11.31384       -1.09138       -3.83646
S        -14.08262       -0.69033       -3.79899
C        -14.68861        0.34277       -2.58992
C        -13.69127        0.82202       -1.77254
H         -2.98183       -0.23656       -1.40204
H         -5.19814       -3.79660        1.36657
H         -4.33800       -4.52080       -3.86228
H         -3.37760       -2.10376       -3.57371
H         -5.67178        0.90870        3.97345
H         -4.99152        7.53762        2.42542
H         -5.32847        9.65887        1.17154
H         -5.43993       10.41421       -1.24594
H         -4.72804       10.33338       -3.45451
H         -3.71291        9.61931       -5.64810
H         -3.32107        7.51893       -7.08137
H         -6.29695        1.12576       -2.56594
H        -11.00753        1.29859       -0.72948
H        -11.43341       -1.68931       -4.73309
H        -15.74867        0.55269       -2.53905
H        -13.88595        1.50175       -0.95176
