116

C         -5.71853       -0.81125        4.78797
C         -4.46344       -1.29112        4.96652
C         -4.15586       -2.35353        5.86494
N         -3.89630       -3.21150        6.60102
C         -3.34461       -0.79552        4.23395
N         -2.43756       -0.37925        3.64487
C         -6.97127       -1.33408        5.41394
C         -8.06735       -0.81587        4.71754
C         -9.39265       -1.05914        5.06257
C         -9.63985       -1.86537        6.19684
C         -8.54758       -2.39435        6.89742
C         -7.20345       -2.14035        6.52310
S         -9.06774       -3.34884        8.23870
C        -10.71203       -3.04099        7.91889
C        -10.88108       -2.24044        6.81406
C         -7.62422        0.09556        3.65024
O         -8.33548        0.63124        2.82480
C         -6.14136        0.24412        3.83843
C         -5.46128        1.30363        3.36804
C         -6.02966        2.38634        2.54674
C         -6.07240        2.37044        1.15011
C         -6.57273        3.49224        0.38790
N         -6.42860        3.46497       -0.95391
C         -5.98795        2.32179       -1.55227
C         -5.60512        1.22517       -0.81982
N         -5.60264        1.26219        0.53514
C         -5.21800       -0.01492       -1.41564
N         -4.92089       -1.02503       -1.91878
C         -6.00505        2.32735       -2.98168
N         -6.02110        2.31856       -4.14614
C         -7.19542        4.61530        0.98779
C         -7.13128        4.66973        2.41999
C         -6.51527        3.54124        3.20542
N         -6.48953        3.76157        4.53249
S         -7.18473        5.24074        4.78492
N         -7.56923        5.64765        3.23354
C         -7.86013        5.71241        0.24421
O         -7.80618        6.92158        0.88697
C         -8.47171        7.85673        0.16039
C         -8.84774        7.29480       -1.04342
C         -8.57211        5.87667       -0.95346
C         -9.02559        4.85092       -1.93039
F         -8.71028        3.56901       -1.63189
F        -10.38269        4.85171       -2.04929
F         -8.52191        5.07787       -3.17182
O         -9.43969        8.06337       -1.99191
C         -9.22136        7.68302       -3.34361
C         -8.60396        9.18103        0.77933
C         -9.71006       10.00713        0.49842
C         -9.78751       11.26960        1.08466
C         -8.76756       11.73391        1.94239
C         -7.68832       10.92460        2.25136
C         -7.61517        9.64995        1.67295
C         -9.05120       13.10051        2.32751
C        -10.25064       13.51499        1.71405
C        -10.86939       12.34893        0.93250
C        -11.14024       12.73040       -0.54688
C         -9.91775       13.14872       -1.35972
C        -12.21202       11.92060        1.59476
C        -12.12904       11.45023        3.04778
C        -10.71717       14.81858        1.84334
C         -9.96790       15.73261        2.59455
C         -8.80068       15.29170        3.25342
C         -8.33405       13.97863        3.11823
C        -10.44826       17.11954        2.67898
C         -9.64462       18.18349        2.83052
C        -10.13536       19.53678        2.85739
C        -11.00679       20.09536        3.70801
C        -11.77050       19.64250        4.88691
C        -11.45879       18.65905        5.76862
C        -12.32224       18.25167        6.82306
N        -13.02713       17.89604        7.67746
C        -10.19452       17.98888        5.80022
N         -9.18046       17.45912        5.93149
C        -12.88218       20.63740        5.07005
C        -12.69359       21.69151        4.17148
C        -11.53355       21.44180        3.31033
O        -11.13042       22.17761        2.43285
C        -13.48585       22.83481        4.12191
C        -14.52730       22.95193        5.06738
C        -14.73018       21.90339        5.97248
C        -13.93282       20.73064        5.97667
S        -16.03088       22.25050        7.05254
C        -16.31566       23.77113        6.34097
C        -15.46271       24.01737        5.29123
H        -10.20577       -0.60955        4.49953
H         -6.41182       -2.55562        7.13560
H        -11.47853       -3.45896        8.55753
H        -11.85583       -1.92721        6.45941
H         -4.42430        1.48669        3.63017
H         -9.70044        8.42804       -3.98461
H         -9.72832        6.74469       -3.56325
H         -8.15831        7.65023       -3.61167
H        -10.49771        9.67235       -0.17030
H         -6.90195       11.26617        2.91553
H         -6.76145        9.01884        1.91214
H        -11.86667       13.55356       -0.58650
H        -11.61363       11.88478       -1.06213
H         -9.41940       14.02072       -0.92666
H        -10.22533       13.41566       -2.37635
H         -9.19051       12.33597       -1.44025
H        -12.66848       11.11188        1.00969
H        -12.91758       12.76203        1.55776
H        -11.60469       10.49303        3.12586
H        -13.13788       11.30497        3.44856
H        -11.62527       12.17674        3.69179
H        -11.62919       15.12542        1.34034
H         -8.22695       15.97182        3.87952
H         -7.41964       13.67542        3.61638
H        -11.52084       17.25887        2.56287
H         -8.56159       18.07666        2.87402
H         -9.74343       20.13837        2.03141
H        -13.28426       23.61955        3.39781
H        -14.15910       19.97146        6.71342
H        -17.09702       24.41290        6.72464
H        -15.49294       24.93215        4.71147
