115

C         -2.85369        0.69171        3.89668
C         -2.94124        0.66655        5.25058
C         -1.85382        0.30665        6.10194
N         -0.97797        0.02452        6.81039
C         -4.11015        1.04556        5.96451
N         -5.06716        1.35198        6.55335
C         -1.61171        0.40536        3.10112
C         -1.83796        0.77085        1.77442
C         -0.88571        0.67701        0.76223
C          0.39041        0.17453        1.09607
C          0.62440       -0.22600        2.41694
C         -0.36610       -0.12782        3.43084
S          2.23181       -0.82917        2.60869
C          2.61714       -0.54827        0.97303
C          1.55618       -0.01594        0.27914
C         -3.21540        1.23612        1.58127
O         -3.67667        1.58113        0.51297
C         -3.89534        1.14084        2.92186
C         -5.20748        1.39911        3.08537
C         -6.05949        1.92865        2.06399
S         -6.27815        3.62384        1.99744
C         -7.37171        3.56917        0.64232
C         -7.58829        2.24017        0.29198
C         -6.84599        1.30808        1.11045
S         -6.91068       -0.45882        0.94376
C         -8.29539       -0.67957       -0.07880
O         -9.24119       -1.41824        0.10412
C         -8.00771        0.13023       -1.32735
O         -7.49985       -0.27076       -2.35406
S         -8.67535        1.69230       -0.99683
C         -7.82603        4.86035        0.20256
C         -8.52151        5.16918       -0.90641
C         -8.94353        6.58636       -1.32292
C         -8.66097        7.79986       -0.40998
C         -9.63140        7.75430        0.84171
C        -10.35343        6.44332        1.19917
C        -10.15126        5.88354        2.40000
O        -11.23194        5.76023        0.35586
C        -11.47420        5.95236       -1.06943
C        -10.43837        6.88624       -1.68152
C        -10.38634        7.81114       -2.86291
C         -9.63827        8.92090       -2.64242
C         -8.90077        9.14183       -1.28495
C         -7.58950        9.89447       -1.51897
C        -12.93228        6.47150       -1.20356
C        -13.95300        5.46742       -0.63722
C        -15.41952        5.93092       -0.68309
C        -15.92940        6.18675       -2.08086
C        -16.54351        5.30023       -2.87827
C        -16.89806        5.52895       -4.25909
C        -17.21661        4.40566       -4.92480
C        -17.18796        3.21031       -4.09790
S        -16.91904        3.67201       -2.41016
C        -17.27067        1.92249       -4.48663
C        -17.29962        1.38813       -5.83657
C        -17.17223        0.04952       -5.89359
C        -17.06350       -0.58194       -4.59377
S        -17.27632        0.59757       -3.32938
C        -16.83650       -1.88566       -4.35437
C        -16.71940       -2.47270       -3.03056
C        -17.55359       -3.43070       -2.55741
C        -17.23810       -3.60149       -1.15733
C        -17.84679       -4.33263       -0.20593
C        -17.36045       -4.14929        1.14768
C        -17.83632       -4.60998        2.31962
C        -17.04708       -4.04948        3.42841
C        -16.04204       -3.29822        2.92321
C        -16.21591       -3.28888        1.48933
C        -15.57824       -2.59295        0.53061
C        -16.11349       -2.72175       -0.81307
C        -15.79835       -2.07383       -1.94504
C        -17.30743       -4.17802        4.83927
C        -18.48514       -3.84446        5.38451
H         -1.12529        0.98207       -0.25253
H         -0.10675       -0.47715        4.42267
H          3.60252       -0.78661        0.59400
H          1.60730        0.22995       -0.77515
H         -5.70549        1.27171        4.03858
H         -7.57159        5.68518        0.86405
H         -8.77337        4.40492       -1.63483
H         -8.31929        6.71928       -2.22318
H         -7.62270        7.78343       -0.05651
H        -10.39936        8.53602        0.77566
H         -9.01913        8.07131        1.69827
H         -9.48206        6.31430        3.13540
H        -10.64506        4.95193        2.65900
H        -11.40883        4.96882       -1.54791
H        -10.80981        7.70221       -1.04689
H        -10.89376        7.60680       -3.79691
H         -9.54044        9.68224       -3.41267
H         -9.53096        9.82831       -0.70391
H         -6.90687        9.33834       -2.16763
H         -7.08351       10.09606       -0.56846
H         -7.78705       10.86641       -1.98863
H        -13.03988        7.41045       -0.64370
H        -13.15407        6.68431       -2.25471
H        -13.71017        5.25798        0.41200
H        -13.85245        4.51689       -1.17507
H        -15.54407        6.84374       -0.08853
H        -16.03314        5.17507       -0.17661
H        -15.72823        7.18409       -2.46381
H        -16.86372        6.51153       -4.70882
H        -17.47734        4.39054       -5.97342
H        -17.35958        2.01361       -6.71654
H        -17.12951       -0.51449       -6.81582
H        -16.73743       -2.58189       -5.18262
H        -18.37656       -3.89702       -3.07248
H        -18.69994       -4.96723       -0.40186
H        -18.69225       -5.25073        2.46015
H        -15.31474       -2.72300        3.47217
H        -14.76064       -1.91468        0.73634
H        -15.04433       -1.30907       -2.05344
H        -16.49402       -4.52573        5.47030
H        -19.30276       -3.45843        4.78145
H        -18.64922       -3.92367        6.45367
