108

C         -4.26872       -2.24780        0.13342
C         -3.50060       -2.77634       -0.84791
C         -2.95808       -4.08976       -0.77431
N         -2.51115       -5.15992       -0.71213
C         -3.23844       -2.07308       -2.06142
N         -3.02315       -1.49655       -3.04415
C         -4.74963       -2.93648        1.36926
C         -5.88057       -2.25770        1.83288
C         -6.55323       -2.57234        3.00592
C         -6.04072       -3.62938        3.78708
C         -4.91480       -4.32853        3.32773
C         -4.25034       -4.00088        2.11581
S         -4.47570       -5.58386        4.43019
C         -5.72515       -5.17800        5.51592
C         -6.47559       -4.11956        5.06406
C         -6.16598       -1.08488        0.99275
O         -7.15583       -0.38594        1.04133
C         -4.96791       -0.94522        0.10880
C         -4.55429        0.24442       -0.36487
C         -5.25182        1.52714       -0.15768
C         -5.08402        2.35049        0.96523
C         -5.75324        3.62754        1.08599
N         -5.49342        4.38084        2.18073
C         -4.64896        3.92651        3.14110
C         -4.03176        2.71017        3.01857
N         -4.23834        1.91793        1.93284
C         -3.12583        2.20595        4.00665
N         -2.39211        1.81829        4.81834
C         -4.45968        4.79469        4.27165
N         -4.29949        5.47434        5.19006
C         -6.64949        4.14100        0.09890
C         -6.83167        3.30120       -1.05138
C         -6.11427        1.98589       -1.18099
N         -6.37132        1.34795       -2.33551
S         -7.44007        2.28344       -3.17623
N         -7.61250        3.54066       -2.12149
C         -7.35229        5.46408        0.20474
C         -7.63613        6.25023       -0.93138
C         -8.28194        7.47607       -0.79654
C         -8.64663        7.97815        0.46541
C         -8.38260        7.24716        1.60069
C         -7.75487        5.99983        1.45964
C         -9.25602        9.27781        0.31087
C         -9.27456        9.60132       -1.05549
C         -8.66346        8.47554       -1.89044
C         -7.41769        8.97613       -2.67514
C         -6.26367        9.49874       -1.81853
C         -9.70142        7.89170       -2.89128
C        -10.96200        7.29116       -2.26873
C         -9.78576       10.80747       -1.49818
C        -10.28041       11.72392       -0.56231
C        -10.27429       11.38477        0.80709
C         -9.76083       10.15905        1.24981
C        -10.84171       13.01651       -0.97486
C        -10.88345       13.44420       -2.24539
C        -11.51788       14.66183       -2.66149
C        -12.82179       14.96631       -2.51003
C        -13.83066       14.03865       -1.87103
C        -13.42647       16.26224       -2.99450
N        -12.44140       17.12747       -3.60576
C        -12.26272       17.39372       -4.93855
C        -12.69527       16.71240       -6.00780
C        -12.44966       17.18729       -7.32605
S        -12.31551       16.07733       -8.64919
C        -12.29468       18.44905       -7.83120
N        -12.36559       19.62192       -7.12726
C        -12.17044       20.60393       -8.01251
S        -11.87905       20.24753       -9.74229
C        -12.05928       18.52594       -9.20549
C        -12.03638       17.31010       -9.82071
C        -11.79740       17.11484      -11.20355
C        -12.28645       16.07087      -11.88490
H         -7.40910       -1.98702        3.33013
H         -3.35984       -4.55430        1.83868
H         -5.85095       -5.72943        6.43817
H         -7.30540       -3.70366        5.62331
H         -3.61536        0.35065       -0.90194
H         -7.35794        5.93470       -1.93199
H         -8.64450        7.62275        2.58415
H         -7.57875        5.45194        2.38136
H         -7.71418        9.77562       -3.36743
H         -7.02628        8.16264       -3.29966
H         -6.58262       10.29657       -1.14170
H         -5.47680        9.90555       -2.46176
H         -5.81471        8.69813       -1.22277
H         -9.22629        7.11037       -3.49860
H        -10.01555        8.67490       -3.59501
H        -10.72670        6.41796       -1.65305
H        -11.64522        6.95933       -3.05792
H        -11.50024        8.01708       -1.65241
H         -9.78951       11.00849       -2.56213
H        -10.67376       12.07710        1.54592
H         -9.76061        9.91807        2.30709
H        -11.27971       13.62748       -0.18804
H        -10.43104       12.89840       -3.06575
H        -10.85030       15.33119       -3.20053
H        -13.42599       13.05649       -1.61276
H        -14.66404       13.85274       -2.55650
H        -14.22515       14.48305       -0.95176
H        -13.85073       16.79505       -2.13593
H        -14.25083       16.05843       -3.68699
H        -11.73123       17.50193       -2.98260
H        -11.66794       18.29918       -5.07010
H        -13.21898       15.77112       -5.87847
H        -12.18165       21.64226       -7.70646
H        -11.21291       17.85988      -11.73987
H        -12.90380       15.30366      -11.42832
H        -12.08786       15.96924      -12.94728
