126

C         -3.60132       11.23958        8.21666
C         -2.72141       10.63185        9.05006
C         -1.94987       11.33462       10.01959
N         -1.31318       11.90285       10.80709
C         -2.52679        9.21915        9.04816
N         -2.36406        8.07124        9.02651
C         -3.97074       12.68904        8.20869
C         -5.12524       12.84840        7.43604
C         -5.71625       14.07707        7.16329
C         -5.11036       15.23296        7.70412
C         -3.96762       15.08297        8.50096
C         -3.37743       13.81921        8.76192
S         -3.40706       16.60971        9.08110
C         -4.63264       17.45982        8.25834
C         -5.46248       16.61721        7.55752
C         -5.57076       11.55897        6.88731
O         -6.60360       11.35748        6.28175
C         -4.48046       10.58340        7.21871
C         -4.30607        9.44820        6.52087
C         -5.16925        8.97103        5.42630
C         -6.26236        8.11407        5.60001
C         -7.03572        7.61516        4.48871
N         -8.07886        6.79271        4.73969
C         -8.35283        6.43342        6.01908
C         -7.61308        6.91965        7.06751
N         -6.56286        7.75362        6.86509
C         -7.88746        6.58887        8.43322
N         -8.12569        6.32199        9.53542
C         -9.40014        5.47125        6.18848
N        -10.22298        4.66909        6.35395
C         -6.73141        7.94289        3.14691
C         -5.63346        8.84642        2.94020
C         -4.84619        9.36940        4.10686
N         -3.85107       10.20390        3.75344
S         -3.91940       10.35968        2.10877
N         -5.15749        9.32135        1.77380
C         -7.51311        7.45192        1.98351
S         -8.00537        8.64035        0.83916
C         -8.84188        7.53966       -0.18036
C         -8.74631        6.26689        0.34541
C         -8.01796        6.21487        1.60002
C         -7.84859        5.01364        2.31314
C         -8.46221        3.87450        1.71352
C         -8.28516        2.60128        2.43669
C         -9.13165        2.16085        3.37683
C         -9.18822        3.93733        0.46772
C         -9.78199        2.70068       -0.17278
C         -9.33530        5.14813       -0.26374
C         -9.46689        8.01806       -1.37085
C         -9.98100        9.25711       -1.44496
C        -10.57991        9.83178       -2.64756
C        -10.48196       11.22495       -2.83604
C        -11.09160       11.79479       -3.94020
C        -11.77734       10.96865       -4.85392
C        -11.87298        9.59840       -4.68302
C        -11.28394        9.03204       -3.56324
C        -12.41795       11.78215       -5.84704
C        -12.20236       13.14363       -5.55521
C        -11.19791       13.26381       -4.39005
C        -11.72668       14.23278       -3.27847
C        -13.05694       13.86982       -2.59908
C         -9.81967       13.75741       -4.97113
C         -9.14628       12.85435       -6.01970
C        -12.89391       14.12300       -6.25862
C        -13.78590       13.71842       -7.26864
C        -13.88391       12.35516       -7.61421
C        -13.21315       11.37940       -6.89782
C        -14.63431       14.70494       -7.95211
C        -15.85031       14.38998       -8.42811
C        -16.71713       15.33652       -9.07368
C        -16.50757       16.01775      -10.20729
C        -15.43748       16.10640      -11.22264
C        -14.49998       15.18133      -11.55103
C        -13.41553       15.44501      -12.43710
N        -12.51161       15.65946      -13.13768
C        -14.55147       13.83302      -11.11512
N        -14.57901       12.69256      -10.85330
C        -15.71105       17.35963      -12.00700
C        -16.91689       17.91071      -11.56423
C        -17.48150       17.12466      -10.46641
O        -18.52137       17.36344       -9.88673
C        -17.53569       19.01917      -12.13175
C        -16.92837       19.59569      -13.26598
C        -15.72738       19.04879      -13.73353
C        -15.09294       17.94457      -13.10754
S        -15.17606       19.87050      -15.14786
C        -16.51094       20.92817      -15.14583
C        -17.35634       20.69040      -14.08850
H         -6.59549       14.14179        6.52863
H         -2.47414       13.78855        9.35956
H         -4.68640       18.53824        8.32377
H         -6.29419       16.97337        6.96130
H         -3.43628        8.81376        6.65751
H         -7.31319        4.92988        3.24801
H         -7.39020        2.03512        2.19512
H        -10.03269        2.70105        3.65292
H         -8.93500        1.23054        3.90383
H        -10.17890        1.99999        0.56609
H         -9.02765        2.19866       -0.78703
H        -10.62376        2.97067       -0.82271
H         -9.87001        5.18023       -1.20592
H         -9.50790        7.34772       -2.22407
H         -9.95518        9.93349       -0.59378
H         -9.94160       11.83193       -2.11763
H        -12.43070        8.97855       -5.37558
H        -11.40280        7.96453       -3.40032
H        -11.85348       15.23875       -3.70498
H        -10.97819       14.33692       -2.48225
H        -13.88918       13.84611       -3.30865
H        -13.30216       14.61539       -1.83112
H        -13.02042       12.91048       -2.07730
H         -9.09075       13.89997       -4.16211
H         -9.95680       14.73968       -5.44224
H         -8.61337       12.02641       -5.54230
H         -8.38757       13.41181       -6.58039
H         -9.85496       12.45286       -6.74954
H        -12.79113       15.16942       -5.99014
H        -14.52726       12.02357       -8.42471
H        -13.35762       10.33345       -7.14036
H        -14.25040       15.71736       -8.02577
H        -16.25977       13.38572       -8.30808
H        -17.63971       15.52073       -8.51294
H        -18.47655       19.39232      -11.73624
H        -14.17678       17.57524      -13.54909
H        -16.61353       21.67607      -15.91997
H        -18.26040       21.26230      -13.91664
