137

C         -2.27746       -0.97921       -0.01598
C         -2.41842       -2.30453       -0.25577
C         -1.30903       -3.18752       -0.37822
N         -0.40122       -3.90411       -0.48107
C         -3.70672       -2.91163       -0.34491
N         -4.75826       -3.40087       -0.43011
C         -1.00034       -0.24159        0.20618
C         -1.29134        0.94304        0.89050
C         -0.34996        1.91379        1.20185
C          0.96811        1.71289        0.73706
C          1.26767        0.53625        0.03451
C          0.29948       -0.46703       -0.22969
S          2.91989        0.51771       -0.46764
C          3.22300        2.05476        0.20186
C          2.11223        2.57529        0.82119
C         -2.74324        1.09766        1.06297
O         -3.30613        1.96408        1.69949
C         -3.35047        0.00240        0.23568
C         -4.54287        0.13721       -0.36966
C         -5.38310        1.34384       -0.25286
C         -6.36403        1.53166        0.71643
C         -7.14904        2.74678        0.80131
N         -8.08585        2.81386        1.77132
C         -8.22608        1.78395        2.64856
C         -7.46489        0.64745        2.55745
N         -6.54469        0.50840        1.57867
C         -7.58082       -0.45017        3.47480
N         -7.68751       -1.32431        4.23124
C         -9.20077        1.97547        3.67266
N         -9.98454        2.12260        4.52297
C         -6.98413        3.85874       -0.08515
C         -5.94806        3.68562       -1.06799
C         -5.14984        2.40913       -1.15410
N         -4.23350        2.41271       -2.13983
S         -4.32787        3.88842       -2.87589
N         -5.54553        4.57190       -1.99728
C         -7.79053        5.13256       -0.02231
C         -8.10027        5.88284       -1.17910
C         -8.77125        7.10832       -1.09477
C         -9.25998        7.57575        0.13599
C         -9.02770        6.84872        1.28553
C         -8.27703        5.66078        1.20137
C         -9.90005        8.86075       -0.04610
C         -9.78079        9.25019       -1.39408
C         -9.08353        8.12878       -2.20898
C         -7.77514        8.72704       -2.81469
C         -6.92363        7.82682       -3.70614
C        -10.02729        7.53051       -3.28592
C        -11.28592        6.82996       -2.76288
C        -10.18136       10.52606       -1.80029
C        -10.70185       11.42997       -0.85054
C        -10.90505       10.98119        0.47070
C        -10.50443        9.69950        0.87745
C        -11.02850       12.80836       -1.28766
C        -11.11763       13.89517       -0.49894
C        -11.50136       15.23867       -0.91694
C        -11.18286       15.94647       -2.01450
C        -11.74163       17.24984       -2.31838
C        -11.59520       17.60951       -3.60421
C        -10.89134       16.61873       -4.39902
S        -10.14459       15.43304       -3.31458
C        -10.91207       16.49056       -5.73980
C        -11.67322       17.26565       -6.70731
C        -11.93186       16.57728       -7.83721
C        -11.41347       15.21823       -7.78598
S        -10.14925       15.16157       -6.59031
C        -11.85331       14.18493       -8.52708
N        -11.57022       12.82832       -8.38040
C        -11.31183       12.17471       -7.13420
O        -11.38322       12.60472       -5.99073
C        -11.08151       10.68284       -7.40754
C        -11.51782       10.57112       -8.84132
C        -11.77866       11.83415       -9.37083
C        -12.24294       11.97305      -10.67473
C        -12.50858       10.81330      -11.42701
C        -12.27770        9.54560      -10.86391
C        -11.79471        9.42115       -9.56479
C        -13.05795       10.89075      -12.82250
C         -9.66131       10.24052       -6.99646
C         -8.58756       11.30142       -7.28059
O         -8.47928       12.34036       -6.64869
N         -7.76901       10.82959       -8.33272
C         -8.08176        9.47243       -8.58032
C         -9.11696        9.05601       -7.74006
C         -9.51000        7.72933       -7.67878
C         -8.89148        6.82190       -8.54094
C         -7.88348        7.24004       -9.43494
C         -7.26636        6.24797      -10.37824
C         -7.47150        8.58232       -9.44850
C         -6.75412       11.55119       -8.93210
C         -6.38660       12.80273       -8.63026
H         -0.64011        2.82653        1.71426
H          0.58622       -1.33335       -0.81619
H          4.20066        2.50806        0.10919
H          2.10548        3.54783        1.29941
H         -4.90859       -0.58342       -1.09498
H         -7.80800        5.52503       -2.15954
H         -9.38317        7.19948        2.24930
H         -8.07341        5.15763        2.14333
H         -7.13302        9.08867       -1.99926
H         -8.02070        9.61213       -3.41640
H         -6.64518        6.89241       -3.22319
H         -5.98329        8.33450       -3.94879
H         -7.42644        7.59766       -4.64957
H         -9.48351        6.78964       -3.88430
H        -10.34229        8.32074       -3.97897
H        -11.03672        5.90993       -2.22350
H        -11.92764        6.54247       -3.60311
H        -11.87556        7.47046       -2.10105
H        -10.04491       10.84179       -2.83198
H        -11.36138       11.63224        1.21241
H        -10.64296        9.39149        1.90868
H        -11.17245       12.91309       -2.36141
H        -10.98350       13.79993        0.57664
H        -12.16392       15.71406       -0.19284
H        -12.27053       17.84107       -1.58406
H        -11.99308       18.52300       -4.02084
H        -12.02449       18.26885       -6.51604
H        -12.51103       16.95917       -8.66610
H        -12.55413       14.40153       -9.32907
H        -11.82191       10.13840       -6.80683
H        -12.43338       12.94974      -11.10567
H        -12.49707        8.64377      -11.43304
H        -11.67811        8.43497       -9.13044
H        -13.94415       10.25178      -12.91152
H        -12.30585       10.55607      -13.54386
H        -13.35993       11.90989      -13.08058
H         -9.62132       10.04361       -5.91740
H        -10.29090        7.40249       -6.99887
H         -9.20137        5.77828       -8.52316
H         -7.99197        5.95687      -11.14433
H         -6.93872        5.35716       -9.83308
H         -6.38935        6.66868      -10.88121
H         -6.68160        8.90123      -10.11877
H         -6.21279       11.04345       -9.72341
H         -6.85854       13.39353       -7.85102
H         -5.57159       13.28628       -9.15709
