120

C         -4.83144        0.36084       -4.61408
C         -4.98757       -0.94276       -4.95307
C         -4.76447       -1.42173       -6.27891
N         -4.58820       -1.80942       -7.35285
C         -5.31092       -1.94599       -3.99341
N         -5.57300       -2.75689       -3.19533
C         -4.33628        1.46307       -5.49565
C         -3.85387        2.48541       -4.67439
C         -3.33547        3.68655       -5.13712
C         -3.35826        3.91223       -6.52734
C         -3.85734        2.90646       -7.36790
C         -4.33909        1.66163       -6.87310
S         -3.81612        3.41572       -9.01948
C         -3.18131        4.94700       -8.61836
C         -2.97237        5.07831       -7.26728
C         -4.08523        2.17718       -3.25930
O         -3.66421        2.82875       -2.32735
C         -4.93258        0.93730       -3.25265
C         -5.76556        0.61279       -2.24764
C         -5.88298        1.39103       -1.05740
C         -5.24870        1.28367        0.16380
C         -5.63293        2.33119        1.08304
N         -5.06293        2.45649        2.31508
C         -4.08975        1.52343        2.53105
C         -3.70341        0.46851        1.67803
C         -4.30509        0.28552        0.42891
C         -6.63605        3.14993        0.60035
S         -6.99042        2.71191       -1.03508
C         -7.42224        4.21700        1.26161
C         -7.70521        4.13173        2.63927
C         -8.55251        5.06732        3.22294
C         -9.10337        6.11753        2.45806
C         -8.80391        6.25062        1.11702
C         -7.96931        5.29708        0.52508
C         -9.99891        6.88947        3.28214
C        -10.03340        6.31754        4.56584
C         -9.07440        5.13187        4.67156
C         -9.81962        3.83743        5.09694
C        -10.93481        3.37319        4.15580
C         -7.88612        5.46709        5.62582
C         -8.23036        5.80159        7.07866
C        -10.87750        6.81059        5.53962
C        -11.66879        7.91990        5.24732
C        -11.60891        8.51331        3.97194
C        -10.78145        7.98959        2.97534
C        -12.49517        8.52395        6.28823
C        -13.06464        7.82965        7.28831
C        -13.82900        8.47360        8.30241
S        -14.77454        9.86582        7.91103
C        -15.33830       10.09048        9.51389
C        -14.86491        9.07706       10.32263
C        -14.01783        8.14357        9.63238
C        -13.44720        7.02089       10.25643
C        -13.80157        6.86541       11.63085
C        -13.25108        5.70124       12.36197
C        -13.01221        4.50142       11.81249
C        -14.64579        7.81664       12.31896
C        -15.01408        7.67814       13.78003
C        -15.20683        8.94362       11.67117
C        -16.19352       11.20368        9.73211
C        -16.22158       11.85188       10.90275
C        -17.11558       12.93036       11.19009
C        -17.58186       13.17727       12.43656
C        -18.42219       14.33689       12.32530
C        -19.16930       14.96320       13.24821
C        -19.93922       16.08704       12.76484
C        -20.82793       16.86970       13.39769
C        -21.38063       17.85321       12.45190
C        -20.77360       17.70542       11.25166
C        -19.88599       16.57974       11.37917
C        -19.12012       15.96534       10.46376
C        -18.39621       14.80769       10.93395
C        -17.60611       13.95757       10.26796
C        -22.37298       18.85985       12.71976
C        -23.34280       18.69892       13.62911
H         -2.98589        4.44489       -4.44212
H         -4.73657        0.93784       -7.57668
H         -2.99045        5.68365       -9.38745
H         -2.57929        5.98061       -6.81295
H         -6.45865       -0.21843       -2.32427
H         -3.57001        1.64907        3.48032
H         -2.90736       -0.20128        1.99300
H         -4.03156       -0.51825       -0.24066
H         -7.30251        3.32391        3.24324
H         -9.22627        7.05448        0.52378
H         -7.76723        5.40307       -0.53829
H        -10.26964        3.97429        6.08845
H         -9.10143        3.01437        5.19768
H        -11.69633        4.14469        4.00646
H        -11.43724        2.49660        4.57905
H        -10.54091        3.08164        3.17785
H         -7.31964        6.31981        5.22608
H         -7.18714        4.62094        5.63819
H         -8.77728        6.74505        7.16135
H         -7.31205        5.93735        7.65977
H         -8.81406        5.01123        7.55789
H        -10.89827        6.34858        6.51977
H        -12.21962        9.38471        3.74470
H        -10.76157        8.44032        1.98927
H        -12.59699        9.60299        6.20981
H        -12.94098        6.75334        7.36489
H        -12.79828        6.32159        9.74599
H        -13.03761        5.84302       13.41809
H        -13.21973        4.27958       10.77050
H        -12.60099        3.69255       12.40818
H        -14.14110        7.84634       14.41718
H        -15.45447        6.69783       13.97507
H        -15.76790        8.42317       14.06914
H        -15.86961        9.60831       12.20483
H        -16.83007       11.52438        8.90876
H        -15.56564       11.57969       11.72150
H        -17.39558       12.61500       13.33697
H        -19.22907       14.64719       14.28080
H        -21.12006       16.79526       14.43282
H        -20.94501       18.26885       10.34971
H        -19.05669       16.27494        9.42977
H        -17.35309       13.99875        9.22068
H        -22.33074       19.77487       12.13242
H        -23.43503       17.78809       14.21057
H        -24.08133       19.47167       13.79571
