113

C          3.50676       17.45361       -4.41997
C          2.17125       17.71770       -4.14922
F          1.82196       18.92561       -3.68851
C          1.19408       16.75344       -4.35534
C          1.55398       15.50109       -4.85698
C          2.89520       15.21294       -5.16026
C          3.88731       16.20427       -4.92485
C          5.23885       15.94309       -5.21711
C          5.62215       14.71713       -5.74865
C          4.61468       13.78796       -6.02565
C          3.27324       13.98691       -5.72057
C          5.17038       12.62397       -6.71912
O          4.53432       11.65364       -7.07669
C          6.65263       12.87432       -6.86139
C          6.94064       14.18570       -6.22924
C          8.11438       14.85335       -6.10756
C          8.29058       15.95471       -5.21452
N          8.44440       16.83594       -4.47720
C          9.28385       14.56186       -6.85982
N         10.25690       14.41893       -7.47251
C          7.34360       11.83958       -7.36731
C          8.76384       11.59429       -7.47827
C          9.63339       11.46760       -6.46466
C         11.02902       11.12803       -6.60975
C         11.64035       10.87689       -5.44201
C         10.75926       10.99006       -4.29435
S          9.22509       11.68867       -4.78781
C         10.96679       10.50604       -3.05736
C         12.08053        9.68863       -2.62285
C         11.78679        8.95018       -1.54007
C         10.43201        9.15733       -1.05324
S          9.77358       10.59119       -1.77067
C          9.81561        8.31547       -0.22297
C          8.44309        8.31813        0.18445
S          8.09799        7.73190        1.79674
C          7.24170        8.59872       -0.43873
C          6.71368        9.11890       -1.73459
N          6.56660       10.56291       -1.59185
C          6.00168       11.18029       -2.78330
C          5.89693       12.67768       -2.54389
O          5.39058        8.53564       -1.87977
C          4.91020        8.26193       -0.54701
O          4.16213        7.06085       -0.57689
C          6.12568        8.13986        0.28831
C          6.40284        7.69412        1.54960
C          5.44662        7.29340        2.50998
C          5.62925        6.32420        3.41462
C          4.56042        5.94464        4.28170
S          4.97527        5.47289        5.88101
C          3.33684        5.31370        6.41192
C          2.48264        5.59506        5.35735
C          3.18628        5.88050        4.11911
C          2.53110        6.11434        2.89761
C          1.13345        6.11004        3.01422
F          0.41731        6.36548        1.90677
C          0.44393        5.86159        4.22997
F         -0.89879        5.89004        4.21044
C          1.07981        5.57833        5.45687
C          3.05406        5.00037        7.77964
C          3.86710        4.25709        8.55493
C          3.60888        4.02189        9.93906
S          2.73123        5.17246       10.90486
C          4.03460        2.99630       10.75600
C          4.87202        1.76873       10.65202
N          4.13646        0.69126        9.99692
C          4.96775       -0.51617        9.92400
C          4.24423       -1.66046        9.22826
O          5.18286        1.37779       12.01563
C          4.31405        2.10588       12.90980
O          5.11549        2.60669       13.96001
C          3.70240        3.18530       12.11382
C          2.96647        4.31182       12.37725
C          2.45310        4.85529       13.58438
C          2.13023        4.08005       14.62673
H          4.23749       18.23852       -4.24344
H          0.15772       16.98719       -4.13286
H          0.77592       14.75825       -5.02218
H          5.94678       16.74534       -5.04567
H          2.54367       13.21238       -5.94430
H          6.77503       10.98492       -7.74948
H          9.10504       11.38745       -8.49209
H         11.51919       11.08028       -7.57285
H         12.68151       10.59916       -5.36423
H         13.01150        9.61443       -3.16342
H         12.45551        8.21709       -1.11122
H         10.40109        7.48172        0.16447
H          7.32632        8.82570       -2.59225
H          7.49756       10.94778       -1.42266
H          5.00172       10.79014       -3.00071
H          6.62834       10.98774       -3.65762
H          5.22395       12.89840       -1.70863
H          5.49207       13.16869       -3.42742
H          6.87375       13.12386       -2.32862
H          4.26812        9.08463       -0.21316
H          3.42901        7.25673       -1.18197
H          4.48809        7.79507        2.42813
H          6.59308        5.83561        3.53380
H          3.00010        6.28560        1.93814
H          0.50399        5.38191        6.35062
H          2.12999        5.40599        8.18200
H          4.77611        3.81733        8.15294
H          5.81640        1.98432       10.13987
H          3.88361        0.99111        9.05834
H          5.23735       -0.85867       10.92992
H          5.89630       -0.30611        9.38066
H          3.34066       -1.95176        9.77387
H          4.90003       -2.53782        9.18148
H          3.96472       -1.39803        8.20335
H          3.55750        1.42178       13.30933
H          5.54322        1.81491       14.32021
H          2.31720        5.93061       13.65867
H          2.22085        2.99967       14.60786
H          1.75389        4.52344       15.54273
