100

C         12.53507       -7.39128       -4.80052
C         12.50714       -8.70635       -5.24655
F         13.24682       -9.05501       -6.30693
C         11.70504       -9.65629       -4.62899
C         10.91138       -9.29027       -3.54051
C         10.88872       -7.96075       -3.09072
C         11.71533       -6.99542       -3.73658
C         11.65382       -5.64277       -3.36384
C         10.70436       -5.23569       -2.43795
C          9.93479       -6.20785       -1.77809
C         10.02874       -7.56160       -2.05866
C          8.97537       -5.57528       -0.84969
O          8.20421       -6.14807       -0.10910
C          9.20090       -4.09885       -0.97643
C         10.12524       -3.90474       -2.11046
C         10.14765       -2.85509       -2.96615
C          9.04390       -1.96237       -3.04267
N          8.09109       -1.30640       -3.17450
C         11.19022       -2.63700       -3.91360
N         12.07357       -2.44989       -4.63907
C          8.77233       -3.29743        0.01975
C          9.23774       -1.96221        0.26296
S         10.91182       -1.60392        0.07534
C         10.76044        0.09194        0.36408
C          9.48025        0.33236        0.83573
C          8.61973       -0.84894        0.80746
C          7.29692       -0.85368        1.27193
C          6.90609        0.39894        1.78505
F          5.67150        0.50062        2.30463
C          7.73763        1.55409        1.79828
F          7.24189        2.68964        2.31712
C          9.05901        1.58274        1.31265
C         11.87928        0.97342        0.15730
C         13.06665        0.55007       -0.31233
C         14.20049        1.40240       -0.58560
C         15.41050        0.99285       -1.02718
C         15.83102       -0.43478       -1.27044
C         16.50338        2.00253       -1.28852
N         16.48534        2.36795       -2.69068
C         15.69571        3.34536       -3.24349
C         15.62309        3.70825       -4.53225
C         14.74756        4.73966       -4.99012
C         14.19668        4.89732       -6.25741
C         13.33229        6.02400       -6.34613
C         13.22265        6.67351       -5.13923
S         14.24978        6.03888       -3.96332
C         12.33890        7.77233       -4.97903
C         11.74937        8.30537       -6.09727
C         12.04491        7.71421       -7.44921
O         12.61661        6.36879       -7.45729
C         10.93410        9.42726       -5.74804
C         10.95197        9.70792       -4.38251
S         11.80599        8.46669       -3.54215
C         10.24686       10.74253       -3.69312
C         10.71190       11.51834       -2.69496
C          9.98487       12.54374       -1.88474
C          8.87584       13.24196       -2.23578
C          8.30567       14.26560       -1.42692
N          7.83236       15.10201       -0.77551
C          8.20561       13.06001       -3.48084
N          7.65716       12.90767       -4.49245
C         10.81339       12.78550       -0.65492
C         12.03138       12.12684       -0.80883
C         12.09367       11.43655       -2.09856
O         13.11874       10.99394       -2.57143
C         13.05704       12.14250        0.13251
C         12.86014       12.89165        1.31122
C         11.63905       13.56043        1.48175
C         10.59740       13.50270        0.51700
S         11.61208       14.42616        2.97836
C         13.17443       13.92378        3.37270
C         13.73740       13.10807        2.42841
Br        14.05043       14.43400        4.94805
H         13.16482       -6.67880       -5.32739
H         11.69038      -10.67268       -5.00993
H         10.27914      -10.04385       -3.07460
H         12.29972       -4.93622       -3.87492
H          9.38725       -8.26908       -1.54055
H          8.09572       -3.71179        0.76750
H          6.62499       -1.70083        1.28125
H          9.65041        2.48674        1.35331
H         11.74060        2.03101        0.37026
H         13.21931       -0.49767       -0.53713
H         14.03499        2.46990       -0.44135
H         15.00684       -1.15039       -1.27397
H         16.53719       -0.74858       -0.49385
H         16.32747       -0.52888       -2.24189
H         17.48198        1.58018       -1.03379
H         16.38286        2.89220       -0.65811
H         16.93861        1.73134       -3.33783
H         15.07950        3.83570       -2.49184
H         16.23067        3.19433       -5.27022
H         14.37928        4.21038       -7.07424
H         12.74202        8.36313       -7.99213
H         11.11991        7.65868       -8.03423
H         10.37837       10.02064       -6.46521
H          9.23096       10.85437       -4.05224
H         13.98169       11.59944       -0.04855
H          9.67591       14.03566        0.73389
H         14.73191       12.68550        2.50979
