99

C          9.76353        6.89122       -6.59589
C          9.76981        8.18519       -7.09891
F         10.42670        8.44259       -8.23724
C          9.14245        9.22097       -6.42020
C          8.47710        8.96126       -5.21888
C          8.48325        7.67083       -4.66350
C          9.15867        6.62483       -5.36268
C          9.32401        5.36521       -4.77211
C          8.95900        5.20797       -3.44584
C          8.17453        6.18836       -2.81579
C          7.90682        7.41194       -3.40799
C          7.85879        5.77600       -1.42817
O          7.10598        6.33050       -0.65759
C          8.63499        4.51078       -1.19605
C          9.48917        4.31902       -2.37555
C         10.81363        4.02109       -2.33320
C         11.54039        4.20618       -1.12285
N         12.13873        4.50482       -0.17130
C         11.62346        3.83021       -3.49190
N         12.24846        3.66028       -4.44790
C          8.37912        3.70385       -0.15248
C          8.93670        2.39258       -0.03535
O         10.13461        2.16722        0.60622
C         10.46475        0.83628        0.56577
C          9.42901        0.18192       -0.07438
C          8.46182        1.15963       -0.47886
C          7.23245        0.86979       -1.22680
O          6.96675       -0.28261       -1.56879
C          6.29448        1.99074       -1.59488
C         11.70813        0.30256        1.09348
S         12.41992       -1.09928        0.37824
C         13.80764       -1.12085        1.42814
C         13.72139       -0.04510        2.29980
C         12.51138        0.75767        2.12125
C         12.20542        1.87310        2.91948
C         13.18153        2.12586        3.90231
F         12.97663        3.15415        4.74123
C         14.36489        1.36006        4.06260
F         15.22341        1.69745        5.03891
C         14.69860        0.25622        3.26291
C         14.75986       -2.18318        1.23052
C         15.49646       -2.70327        2.22777
C         16.43736       -3.79959        2.08117
C         17.20204       -4.33260        3.06193
C         17.26098       -3.84273        4.48826
C         18.14038       -5.48752        2.77338
N         17.45194       -6.73871        3.05239
C         18.00681       -7.98403        2.86826
C         17.44510       -9.17785        3.11488
C         18.19730      -10.41619        3.00668
C         17.76473      -11.67149        3.20020
C         18.78525      -12.73604        3.47191
O         19.96507      -12.73307        3.19154
C         18.06680      -13.77789        4.23013
C         18.63382      -14.91024        4.79076
C         17.80153      -15.78155        5.50154
C         16.41617      -15.47415        5.65161
C         15.59739      -16.36752        6.35715
C         16.13409      -17.53039        6.90098
C         17.48188      -17.83222        6.76523
C         18.31566      -16.95898        6.06714
F         15.33475      -18.37550        7.56486
C         15.88061      -14.29942        5.08033
C         16.70194      -13.46167        4.33805
C         16.45429      -12.26112        3.48993
C         15.31111      -12.03353        2.79872
C         15.33138      -11.28810        1.58323
N         15.35856      -10.76051        0.54914
C         14.07401      -12.66472        3.11429
N         13.06499      -13.16119        3.39920
H         10.29693        6.11956       -7.14552
H          9.19272       10.22841       -6.82193
H          8.00623        9.78970       -4.69301
H          9.85701        4.58700       -5.31122
H          7.37273        8.18043       -2.85488
H          7.64802        3.99841        0.59844
H          9.36591       -0.88535       -0.25260
H          5.86223        2.42709       -0.69057
H          5.48267        1.61450       -2.22341
H          6.82146        2.74458       -2.18184
H         11.32713        2.49802        2.83329
H         15.63161       -0.26248        3.42476
H         14.84126       -2.60713        0.23060
H         15.37562       -2.32490        3.23325
H         16.51065       -4.22998        1.08130
H         16.39039       -3.25521        4.78701
H         18.15425       -3.22520        4.63412
H         17.31516       -4.68656        5.18414
H         19.04641       -5.40376        3.38618
H         18.46172       -5.47172        1.72508
H         16.70585       -6.69194        3.74137
H         19.02558       -7.92792        2.48507
H         16.41834       -9.21361        3.46401
H         19.27132      -10.27549        2.85869
H         19.69528      -15.10521        4.66277
H         14.53397      -16.18183        6.48341
H         17.87492      -18.74576        7.20049
H         19.37004      -17.20900        5.96423
H         14.82563      -14.08319        5.22274
