98

C         12.70368       -6.54338       -2.02692
C         13.16660       -7.81694       -1.72687
F         14.26351       -8.27681       -2.34218
C         12.50331       -8.62409       -0.81246
C         11.37649       -8.13619       -0.14556
C         10.89000       -6.84644       -0.41528
C         11.54925       -6.05603       -1.40650
C         11.03251       -4.80901       -1.78321
C          9.87033       -4.36114       -1.18442
C          9.31049       -5.07951       -0.11533
C          9.77922       -6.32337        0.26925
C          8.24639       -4.26570        0.52836
O          7.57277       -4.56579        1.48599
C          8.27950       -2.95177       -0.20682
C          8.99373       -3.20434       -1.45910
C          8.63889       -2.80303       -2.69781
C          7.42187       -2.10488       -2.96342
N          6.41660       -1.61755       -3.21936
C          9.34696       -3.23599       -3.86591
N          9.94424       -3.58812       -4.79295
C          8.06042       -1.81836        0.47893
C          8.60712       -0.56054        0.07851
S         10.22728       -0.20505        0.54552
C         10.26567        1.35859       -0.21493
C          8.98881        1.65682       -0.66595
C          8.06345        0.53813       -0.54977
C          6.74109        0.57019       -1.00172
C          6.40152        1.80738       -1.57369
F          5.15683        1.94818       -2.05640
C          7.29029        2.91525       -1.66062
F          6.82493        4.06073       -2.18453
C          8.63038        2.89347       -1.22448
C         11.48625        2.12100       -0.26785
C         12.68737        1.51250       -0.31592
C         13.95905        2.15039       -0.45038
S         15.20933        1.19563       -1.18655
C         16.39750        2.41312       -1.03539
C         15.86794        3.53144       -0.41233
C         14.47469        3.38610       -0.09254
S         13.57279        4.68246        0.70596
C         14.45444        6.01529        0.03353
O         14.12143        6.74929       -0.87291
C         15.75235        6.02447        0.80507
O         15.99776        6.71385        1.77336
S         16.84090        4.97950       -0.05456
C         17.74206        2.16867       -1.44708
C         18.16980        2.27842       -2.72255
C         17.25680        2.47409       -3.90525
C         19.65212        2.30457       -3.02037
N         20.09484        0.95460       -3.33408
C         21.26218        0.64765       -4.00181
C         21.78084        1.29844       -5.04747
C         23.03114        0.96014       -5.68010
C         24.08810        1.77889       -5.78454
C         25.41743        1.15016       -6.08110
O         25.64674        0.11070       -6.66354
C         26.40578        2.01222       -5.41521
C         27.75292        1.72980       -5.26423
C         28.52229        2.60209       -4.48934
C         27.90601        3.72751       -3.86662
C         28.68594        4.57790       -3.07347
C         30.04244        4.32552       -2.90524
C         30.65243        3.23562       -3.51290
C         29.89364        2.37287       -4.30360
F         30.77469        5.14974       -2.14565
C         26.53219        3.97925       -4.04764
C         25.77841        3.13527       -4.85074
C         24.34427        3.13470       -5.27432
C         23.55433        4.23286       -5.35040
C         22.31493        4.26468       -6.05022
N         21.30149        4.35464       -6.61433
C         23.92513        5.49133       -4.79848
N         24.21060        6.50881       -4.32277
H         13.24676       -5.95139       -2.75897
H         12.87073       -9.62784       -0.62289
H         10.87308       -8.78033        0.57289
H         11.53298       -4.22260       -2.54872
H          9.29660       -6.86506        1.07834
H          7.66759       -1.87240        1.49458
H          6.03168       -0.24504       -0.95785
H          9.26280        3.76579       -1.31694
H         11.39545        3.19968       -0.34816
H         12.72496        0.42636       -0.30515
H         18.46269        1.98825       -0.65231
H         16.71108        3.42034       -3.83386
H         16.53913        1.65010       -3.97174
H         17.80970        2.48009       -4.85098
H         20.20677        2.68064       -2.14881
H         19.86156        3.01437       -3.83001
H         19.85483        0.28097       -2.60976
H         21.75562       -0.24105       -3.60760
H         21.20716        2.10810       -5.47382
H         23.14407       -0.09036       -5.95988
H         28.17850        0.84117       -5.72276
H         28.25570        5.44634       -2.58090
H         31.71390        3.06416       -3.36801
H         30.38190        1.52143       -4.77308
H         26.08898        4.82664       -3.53520
