91

C         15.40520       -8.57608       -6.47483
C         15.60978       -9.91758       -6.77238
F         16.74683      -10.28946       -7.37457
C         14.64724      -10.87319       -6.47806
C         13.45924      -10.48901       -5.85571
C         13.21411       -9.14039       -5.55525
C         14.20217       -8.16538       -5.88817
C         13.95066       -6.79906       -5.68098
C         12.70795       -6.40715       -5.21134
C         11.78605       -7.38241       -4.79991
C         12.01055       -8.73924       -4.95885
C         10.59471       -6.74360       -4.20144
O          9.62516       -7.30522       -3.73745
C         10.87724       -5.26977       -4.23270
C         12.02387       -5.09160       -5.13286
C         12.21127       -4.08580       -6.02277
C         11.19030       -3.11884       -6.26671
N         10.33489       -2.37863       -6.52227
C         13.35251       -4.00102       -6.86434
N         14.31054       -3.91782       -7.52139
C         10.26442       -4.46805       -3.34426
C         10.66363       -3.12866       -3.02450
S         12.34119       -2.72604       -2.85266
C         12.06202       -1.04493       -2.58562
C         10.70208       -0.81315       -2.50393
C          9.90634       -2.01644       -2.69638
C          8.50557       -2.03520       -2.61522
C          7.96784       -0.76755       -2.31623
F          6.63564       -0.67145       -2.17748
C          8.74332        0.41170       -2.15850
F          8.11218        1.56515       -1.88516
C         10.14218        0.45016       -2.26560
C         13.21801       -0.21562       -2.48148
C         13.29770        0.81773       -1.63162
C         14.44856        1.68104       -1.52784
C         15.68813        1.32473       -1.13846
C         16.10182       -0.07041       -0.75046
C         16.78805        2.35545       -1.07267
N         16.81939        2.92907        0.25370
C         17.56184        2.49254        1.32069
C         17.52161        2.99173        2.56263
C         18.33123        2.48342        3.65517
C         18.34648        2.93976        4.91846
C         19.19637        2.41436        5.96242
C         19.07985        3.05604        7.13497
C         18.09546        4.12372        7.12744
S         17.35564        4.23764        5.52729
C         17.77282        4.93609        8.15306
C         18.39265        4.99830        9.46335
C         17.98695        6.04088       10.20761
C         17.01675        6.89035        9.54270
S         16.48169        6.12195        8.07029
C         16.60473        8.08172       10.01548
C         15.70918        8.97221        9.36168
S         14.50125        9.90234       10.20233
C         13.83269       10.57624        8.73907
C         14.57344       10.12551        7.70548
C         15.62099        9.30114        8.05226
O         16.41258        8.86059        7.03368
C         15.69875        9.35349        5.96788
N         16.17504        8.93028        4.68982
O         16.29971        9.80766        3.83174
O         16.36876        7.71664        4.53549
C         14.61550       10.17308        6.29877
H         16.17931       -7.86184       -6.74007
H         14.82487      -11.91111       -6.74255
H         12.71133      -11.24966       -5.63484
H         14.71668       -6.07285       -5.93520
H         11.25031       -9.45600       -4.65930
H          9.43707       -4.87661       -2.76289
H          7.86832       -2.89771       -2.74873
H         10.67484        1.38392       -2.16336
H         14.08204       -0.46757       -3.09460
H         12.47716        1.09169       -0.97562
H         14.23653        2.72922       -1.73959
H         15.30192       -0.80799       -0.84832
H         16.42822       -0.09542        0.29326
H         16.92975       -0.40577       -1.38371
H         16.60350        3.15886       -1.79668
H         17.75502        1.91786       -1.34642
H         16.08221        3.59505        0.46859
H         18.22479        1.66600        1.07414
H         16.86129        3.83188        2.76481
H         18.98792        1.65449        3.39827
H         19.86200        1.57819        5.79873
H         19.64339        2.78229        8.01479
H         19.13873        4.29120        9.79554
H         18.36524        6.25602       11.19776
H         16.96805        8.40133       10.99005
H         12.96755       11.22423        8.76079
H         13.94227       10.65604        5.60522
