97

C          6.63140        5.28217        6.30851
C          5.72019        5.70842        7.26685
F          5.94125        6.85810        7.91707
C          4.59906        4.95135        7.57810
C          4.36652        3.75019        6.90550
C          5.27591        3.28437        5.94328
C          6.44052        4.05778        5.65644
C          7.41827        3.56810        4.77434
C          7.27250        2.29601        4.24471
C          6.07251        1.59790        4.45057
C          5.07026        2.06301        5.28507
C          6.07704        0.33593        3.68203
O          5.18149       -0.48149        3.62687
C          7.39099        0.31496        2.95008
C          8.21120        1.37542        3.55417
C          9.54519        1.33900        3.79554
C         10.32129        0.16754        3.55356
N         10.95648       -0.79105        3.39670
C         10.25819        2.42503        4.37708
N         10.83889        3.33115        4.81165
C          7.50582       -0.44742        1.84852
C          8.57488       -0.40278        0.88950
S          9.37776        1.09020        0.48669
C         10.62627        0.32184       -0.40830
C         10.26455       -0.98132       -0.66795
C          9.06408       -1.38731        0.04206
C          8.48600       -2.65814       -0.09089
C          9.18524       -3.46601       -1.00985
F          8.69150       -4.68937       -1.26212
C         10.37122       -3.06594       -1.69125
F         10.94123       -3.93541       -2.54151
C         10.98074       -1.80827       -1.54088
C         11.74174        1.09414       -0.83034
C         12.88152        1.06602       -0.13202
C         14.05448        1.79808       -0.54579
C         15.25156        1.23440       -0.79735
C         15.51899       -0.24775       -0.75686
C         16.43603        2.08905       -1.17056
N         17.13272        2.41602        0.05489
C         18.27926        3.16399        0.13126
C         18.91335        3.53247        1.25275
C         20.09509        4.32309        1.20929
C         21.03032        4.47049        0.20522
C         22.10299        5.37630        0.52074
C         21.90061        5.95381        1.75314
S         20.54019        5.28219        2.55602
C         22.70797        6.98215        2.34057
C         24.06011        7.16572        2.14707
C         24.94109        6.34877        1.31388
O         26.10400        6.16950        1.67914
N         24.48655        5.87882        0.06316
C         23.18253        5.64833       -0.41868
O         22.95045        5.55231       -1.62500
C         25.54861        5.53090       -0.88609
C         25.94993        4.06277       -0.78935
C         24.54189        8.26286        2.95881
C         23.55245        8.90556        3.67393
S         22.03879        8.17711        3.36847
C         23.68199       10.03741        4.55199
S         22.65941       10.35788        5.92567
C         23.48454       11.82611        6.35362
C         24.47966       12.00466        5.46231
C         24.59367       11.03495        4.49019
O         25.58741       11.19921        3.57063
C         26.12528       12.38700        4.03602
N         27.23339       12.89682        3.27924
O         27.72374       13.96104        3.68032
O         27.61189       12.24827        2.29614
C         25.50330       12.91800        5.17212
H          7.50394        5.89992        6.11194
H          3.91693        5.29718        8.34847
H          3.48531        3.16613        7.16368
H          8.29664        4.17304        4.56864
H          4.17845        1.46469        5.45109
H          6.70325       -1.15551        1.63573
H          7.59253       -3.01308        0.40332
H         11.88007       -1.53841       -2.07717
H         11.64832        1.67775       -1.74179
H         12.98094        0.46855        0.77690
H         13.93913        2.87935       -0.61814
H         14.60565       -0.84379       -0.66741
H         16.16746       -0.49448        0.08905
H         16.01259       -0.56962       -1.68021
H         16.11734        3.00433       -1.68341
H         17.09915        1.55086       -1.85896
H         16.57334        2.38987        0.90416
H         18.65007        3.45899       -0.84891
H         18.52306        3.22407        2.21893
H         20.97265        3.93983       -0.73937
H         26.42702        6.16282       -0.71289
H         25.22276        5.73764       -1.91172
H         26.38238        3.83276        0.18949
H         26.69715        3.82550       -1.55370
H         25.08966        3.40196       -0.93875
H         25.58812        8.55090        2.99487
H         23.17331       12.42254        7.20035
H         25.77397       13.83408        5.68126
