99

C          9.03470       20.47344        8.33123
C          7.97250       21.29470        8.67119
F          8.11407       22.15847        9.68458
C          6.78585       21.26535        7.95007
C          6.65724       20.41062        6.84974
C          7.74090       19.62035        6.43257
C          8.94134       19.65583        7.20483
C         10.08361       18.98136        6.78110
C         10.09590       18.47814        5.49670
C          8.89936       18.34484        4.78041
C          7.70235       18.86985        5.24230
C          9.17399       17.70466        3.47362
O          8.35336       17.40690        2.63461
C         10.67289       17.50756        3.42808
C         11.22100       18.25413        4.55792
C         12.33549       19.02974        4.56365
C         12.70807       19.85486        5.66528
N         13.00379       20.51005        6.57504
C         13.12193       19.21976        3.39857
N         13.76959       19.40588        2.44684
C         11.21000       16.61527        2.58252
C         12.58138       16.11388        2.55827
C         12.97298       14.97628        1.96150
C         14.31537       14.43597        1.96576
C         14.41260       13.21915        1.40185
C         13.15271       12.71445        0.88254
S         11.88372       13.91020        1.13429
C         12.89064       11.52004        0.31886
C         13.78185       10.38988        0.14220
C         13.15416        9.26645       -0.24876
C         11.72420        9.42883       -0.41438
S         11.28458       11.10524       -0.28214
C         10.83515        8.43650       -0.58438
C          9.42566        8.68169       -0.61732
S          8.55634        8.65842        0.88351
C          7.10748        9.05175        0.11743
N          5.91568        9.21003        0.88946
O          5.26040       10.24234        0.69012
O          5.60551        8.28525        1.64866
C          7.22056        9.16798       -1.24435
C          8.57351        8.96588       -1.68438
C          9.00992        8.94440       -3.06005
C          8.52173        9.60702       -4.12285
C          8.86650        9.28158       -5.49183
C          7.96809        9.73177       -6.38294
C          6.88965       10.49193       -5.77385
S          7.31322       10.85980       -4.09999
C          5.67318       10.74379       -6.29269
C          5.13738       10.22520       -7.53910
C          3.79405       10.23164       -7.57675
C          3.19120       10.80007       -6.38784
S          4.39924       11.57303       -5.40023
C          1.89682       10.69835       -6.04730
C          1.30850       11.26421       -4.84532
C          0.80536       10.62506       -3.77783
C          0.56547       11.42827       -2.52330
O          0.39757       12.62528       -2.42265
C          0.63069       10.45698       -1.41223
C          0.61550       10.74037       -0.05360
C          0.86053        9.69153        0.84667
C          1.14762        8.38784        0.34526
C          1.47906        7.36603        1.24516
C          1.50311        7.61718        2.61228
C          1.18284        8.86947        3.11627
C          0.86110        9.90551        2.23677
F          1.83678        6.63120        3.45530
C          1.10721        8.13231       -1.04022
C          0.80778        9.16260       -1.92026
C          0.64453        9.21508       -3.40227
C          0.13550        8.20722       -4.15241
C         -0.29060        8.38038       -5.50144
N         -0.66237        8.48777       -6.59541
C         -0.14695        6.91948       -3.60856
N         -0.37808        5.87127       -3.16628
H          9.95773       20.55065        8.90086
H          5.97807       21.93237        8.23387
H          5.72735       20.42063        6.28458
H         10.97866       18.99378        7.39471
H          6.80479       18.80395        4.63310
H         10.52398       16.15772        1.87083
H         13.34361       16.67550        3.08162
H         15.15540       14.96934        2.39172
H         15.34271       12.67294        1.32677
H         14.84162       10.43574        0.35097
H         13.64953        8.31552       -0.38894
H         11.16224        7.40301       -0.62297
H          6.36814        9.36608       -1.88349
H          9.80019        8.22443       -3.26719
H          9.71301        8.66105       -5.75038
H          8.01888        9.52013       -7.44150
H          5.75017        9.79280       -8.31805
H          3.20916        9.81702       -8.38726
H          1.22522       10.19210       -6.73068
H          1.42780       12.35005       -4.77946
H          0.45282       11.75905        0.28835
H          1.73410        6.36811        0.89958
H          1.19942        9.03449        4.18924
H          0.62363       10.88494        2.64771
H          1.33212        7.13081       -1.39613
