93

C         12.46363       -1.55458        8.84517
C         12.25786       -1.91373       10.17349
F         13.24230       -1.73283       11.06343
C         11.05880       -2.47598       10.58876
C         10.02399       -2.64585        9.66905
C         10.20614       -2.30223        8.31933
C         11.46386       -1.78296        7.88987
C         11.70458       -1.54101        6.52031
C         10.71126       -1.82274        5.59311
C          9.44627       -2.21556        6.05761
C          9.17259       -2.47253        7.39042
C          8.48405       -2.26912        4.94279
O          7.30999       -2.56414        5.01445
C          9.24688       -1.81050        3.73199
C         10.66956       -1.85579        4.10437
C         11.71242       -2.22208        3.31615
C         11.51661       -2.67514        1.97661
N         11.36269       -3.08283        0.89854
C         13.05362       -2.28697        3.78703
N         14.14972       -2.31101        4.17383
C          8.53228       -1.28250        2.72159
C          9.03390       -0.54084        1.60501
S         10.40482        0.49374        1.75587
C         10.56897        0.75789        0.05178
C          9.39684        0.35478       -0.56429
C          8.50056       -0.35409        0.33957
C          7.23995       -0.83783       -0.03865
C          6.92779       -0.53277       -1.37510
F          5.71592       -0.89533       -1.82770
C          7.81147        0.13672       -2.26822
F          7.39189        0.35792       -3.52479
C          9.09796        0.59422       -1.91580
C         11.73555        1.42002       -0.44584
C         12.94388        1.24892        0.11657
C         14.12361        1.94042       -0.33430
C         15.25902        1.33949       -0.73824
C         15.43401       -0.15202       -0.86052
C         16.44049        2.16755       -1.16992
N         17.30274        2.38070       -0.03254
C         18.35679        1.59242        0.35173
C         19.12918        1.81212        1.41972
C         20.23218        0.95842        1.82073
C         21.03048        1.17433        2.87753
C         22.13079        0.33048        3.28258
C         22.78851        0.77672        4.36417
C         22.26183        2.01921        4.89797
S         20.86682        2.53282        3.95365
C         22.73618        2.73708        5.93177
C         23.87981        2.44522        6.77056
C         24.16985        3.41824        7.65019
C         23.27882        4.56112        7.57587
S         22.01704        4.26075        6.41914
C         23.45222        5.70506        8.25989
C         22.63458        6.87629        8.13967
C         21.28488        7.03942        7.87205
C         20.85178        8.40229        7.79013
C         19.56996        8.94554        7.52338
C         19.37970       10.33197        7.53680
C         20.45548       11.18364        7.77278
C         21.72997       10.66938        8.02217
C         21.90870        9.27363        8.03934
S         23.36400        8.41938        8.36179
C         18.06984       10.88634        7.34101
N         17.02058       11.35291        7.20963
H         13.42048       -1.11843        8.57055
H         10.93714       -2.77745       11.62469
H          9.08325       -3.07375       10.01098
H         12.67599       -1.16295        6.21266
H          8.18290       -2.80896        7.68693
H          7.44791       -1.38387        2.76837
H          6.53797       -1.36067        0.59539
H          9.73558        1.08712       -2.63679
H         11.63749        2.05714       -1.32058
H         13.10532        0.57480        0.95559
H         14.07461        3.02734       -0.28094
H         14.49652       -0.70325       -0.73939
H         16.13692       -0.52054       -0.10765
H         15.82138       -0.40767       -1.85280
H         16.10829        3.14399       -1.54163
H         16.97995        1.69533       -1.99916
H         16.96224        3.03861        0.66518
H         18.52962        0.74238       -0.30082
H         18.92638        2.69752        2.01791
H         20.40476        0.08105        1.20184
H         22.39401       -0.57220        2.74930
H         23.64059        0.26912        4.79249
H         24.45646        1.53548        6.68169
H         25.00510        3.37619        8.33642
H         24.31885        5.78322        8.91350
H         20.60032        6.21390        7.72269
H         18.73578        8.27450        7.32351
H         20.31088       12.26231        7.77627
H         22.56498       11.33669        8.21576
