120

C         20.67511       -4.65592       -1.64350
C         21.68668       -5.59862       -1.52274
F         22.51846       -5.53705       -0.47528
C         21.86637       -6.58579       -2.48305
C         21.00047       -6.65774       -3.57598
C         19.97453       -5.71478       -3.73396
C         19.83336       -4.67845       -2.76023
C         18.90248       -3.64927       -2.94909
C         18.17150       -3.62701       -4.12246
C         18.21912       -4.71865       -5.00453
C         19.11103       -5.76117       -4.84010
C         17.20642       -4.55085       -6.07510
O         16.95946       -5.32205       -6.97663
C         16.51167       -3.25889       -5.75194
C         17.36609       -2.57581       -4.77631
C         17.70878       -1.26462       -4.76720
C         17.35200       -0.40418       -5.84612
N         17.14678        0.28195       -6.75870
C         18.57167       -0.69617       -3.78636
N         19.24877       -0.23372       -2.96497
C         15.23666       -3.06258       -6.13438
C         14.36729       -2.05174       -5.59844
S         14.38916       -1.67399       -3.89596
C         13.26886       -0.38240       -4.02628
C         12.74687       -0.35037       -5.29940
C         13.35249       -1.31963       -6.19653
C         12.98059       -1.45324       -7.54299
C         11.98415       -0.52502       -7.91280
F         11.55884       -0.54126       -9.18668
C         11.41132        0.43491       -7.02889
F         10.50911        1.29972       -7.51991
C         11.74812        0.55381       -5.67170
C         12.98025        0.40169       -2.87514
C         13.58724        1.58235       -2.67295
C         13.33905        2.39551       -1.48657
C         14.39818        2.66992       -0.68835
C         14.24526        3.41857        0.55283
C         15.12970        3.78441        1.53326
C         16.65602        3.55827        1.67047
C         17.26208        2.81359        0.44181
N         18.69786        2.53375        0.46477
C         17.44496        4.88483        1.93319
N         18.90969        4.75015        2.01363
C         14.28646        4.50464        2.52184
C         14.56014        5.09480        3.70051
C         13.51922        5.89313        4.49467
C         12.10689        5.77602        3.94164
C         11.81446        5.13897        2.79599
C         12.89618        4.54188        2.05494
C         12.87720        3.88914        0.88581
C         11.77383        3.61956       -0.01001
C         12.00727        2.91166       -1.13171
C         13.91158        7.36535        4.55594
C         14.12102        8.09445        5.66357
C         14.49247        9.49258        5.71722
C         14.77505        9.93122        6.95753
C         14.67775        8.89471        7.97346
S         13.99047        7.43508        7.26257
C         15.08649        8.94027        9.25644
C         15.65047       10.06617        9.97759
C         16.11077        9.75060       11.19951
C         15.98839        8.34603       11.51792
S         15.08134        7.50808       10.29666
C         16.52537        7.74766       12.59066
C         16.55468        6.31068       12.81671
C         16.01575        5.64804       13.84832
C         16.04905        4.20911       14.21928
C         16.58979        3.17523       13.52106
C         16.51509        1.82300       13.96279
N         16.45421        0.72553       14.33356
C         17.26710        3.33617       12.28260
N         17.84726        3.44845       11.27566
C         15.33118        4.09138       15.53343
C         14.81341        5.34136       15.87343
C         15.20745        6.35993       14.89675
O         14.93409        7.53975       14.98421
C         14.06815        5.59794       17.01969
C         13.85577        4.53223       17.91919
C         14.40133        3.27878       17.61313
C         15.14053        3.03848       16.42694
S         14.05616        2.12745       18.85497
C         13.21153        3.27037       19.76445
C         13.15827        4.50410       19.17359
Br        12.43209        2.88770       21.42359
H         20.58383       -3.88899       -0.87853
H         22.68558       -7.28985       -2.37737
H         21.15636       -7.43614       -4.32034
H         18.81142       -2.85902       -2.20906
H         19.15851       -6.55946       -5.57555
H         14.79343       -3.76330       -6.84287
H         13.39229       -2.15151       -8.25886
H         11.28478        1.28673       -5.02617
H         12.26665        0.01014       -2.15566
H         14.33565        1.96166       -3.36827
H         15.35707        2.28059       -0.98342
H         16.80263        2.90385        2.54252
H         17.06998        3.41011       -0.45855
H         16.78587        1.83370        0.34882
H         19.16385        3.43886        0.63136
H         19.00120        2.24585       -0.46609
H         17.13731        5.32324        2.88251
H         17.21788        5.61157        1.14729
H         19.14492        3.95157        2.61067
H         19.32038        5.57343        2.45023
H         15.54021        5.03111        4.15621
H         13.48874        5.44096        5.49271
H         11.30701        6.22181        4.52872
H         10.79314        5.05657        2.44351
H         10.78342        3.99487        0.21704
H         11.19713        2.71310       -1.82727
H         14.01834        7.85109        3.58728
H         14.55111       10.11463        4.83341
H         15.09376       10.94242        7.17271
H         15.69644       11.06690        9.57135
H         16.57202       10.45554       11.87767
H         17.05323        8.34385       13.33138
H         17.10666        5.80501       12.03058
H         13.68350        6.59459       17.21721
H         15.54135        2.04452       16.28049
H         12.66099        5.36252       19.60805
