95

C          9.67341       -7.30412        1.87117
C          9.31876       -8.60422        2.20897
F          9.84757       -9.16379        3.30539
C          8.40373       -9.32137        1.45087
C          7.83858       -8.74136        0.31524
C          8.15342       -7.42206       -0.03570
C          9.07695       -6.68426        0.76792
C          9.32586       -5.32874        0.50582
C          8.58180       -4.69571       -0.47355
C          7.75218       -5.45697       -1.31321
C          7.53577       -6.80965       -1.13137
C          7.12713       -4.59993       -2.34228
O          6.38761       -4.95850       -3.23027
C          7.66149       -3.22130       -2.08030
C          8.30064       -3.26481       -0.75561
C          8.18405       -2.34256        0.23261
C          7.21319       -1.30131        0.13018
N          6.34523       -0.53209        0.09599
C          8.82994       -2.46435        1.51025
N          9.38063       -2.56938        2.52295
C          7.68019       -2.36016       -3.10515
C          8.47210       -1.16359       -3.19634
S         10.06057       -1.09935       -2.52186
C         10.40029        0.49955       -3.07237
C          9.33132        0.95271       -3.82661
C          8.23756        0.00014       -3.90734
C          7.05934        0.23062       -4.63344
C          7.05433        1.49052       -5.26062
F          5.97539        1.81915       -5.99002
C          8.11797        2.43102       -5.16911
F          7.98611        3.60549       -5.80735
C          9.30768        2.20968       -4.45034
C         11.64824        1.13545       -2.76974
C         12.33366        0.91106       -1.63675
C         13.49672        1.68351       -1.26729
C         14.68444        1.19890       -0.85462
C         15.07797       -0.25500       -0.87254
C         15.75957        2.14479       -0.37528
N         15.69712        2.22697        1.06653
C         16.37152        1.43133        1.95275
C         16.32978        1.50629        3.28741
C         17.08733        0.61276        4.14419
C         17.07690        0.60821        5.48487
C         17.71571       -0.39618        6.30729
C         17.19011       -0.46676        7.54114
C         16.10750        0.48643        7.75045
S         16.16829        1.71105        6.48157
C         15.08437        0.38077        8.61473
C         14.81592       -0.72482        9.51418
C         13.52094       -0.81560        9.86384
C         12.68807        0.21354        9.26301
S         13.70711        1.48131        8.63086
C         11.34785        0.12808        9.17539
C         10.46318        0.99765        8.44596
C          9.17169        1.41108        8.74263
C          8.58731        2.23050        7.69993
N          7.33236        2.75248        7.79266
C          6.70687        2.39591        8.95031
C          7.22008        1.59072        9.98872
C          8.51377        1.05625        9.92855
C          9.39313        2.38850        6.59295
S         10.86374        1.53676        6.84726
C          9.12872        3.12009        5.39340
C          9.70027        2.84464        4.21224
H         10.37549       -6.77269        2.50896
H          8.12205      -10.32362        1.75876
H          7.11469       -9.31203       -0.26490
H         10.03248       -4.78348        1.12487
H          6.84919       -7.34333       -1.78271
H          7.13659       -2.62531       -4.01000
H          6.22261       -0.44818       -4.73143
H         10.08747        2.95748       -4.41211
H         12.02719        1.86457       -3.48215
H         11.99043        0.20786       -0.88126
H         13.32984        2.76037       -1.24415
H         14.42349       -0.86451       -1.50268
H         15.07035       -0.67230        0.13854
H         16.09112       -0.36651       -1.27805
H         15.61030        3.14796       -0.79128
H         16.75170        1.82130       -0.71053
H         15.07823        2.93133        1.45838
H         16.98882        0.68028        1.46520
H         15.68740        2.24998        3.75279
H         17.65902       -0.15652        3.62920
H         18.48643       -1.05492        5.93306
H         17.49437       -1.19206        8.28162
H         15.56614       -1.44432        9.80774
H         13.11613       -1.61393       10.47009
H         10.86433       -0.72003        9.65436
H          5.69718        2.79523        9.04084
H          6.59192        1.38508       10.85221
H          8.92284        0.43891       10.71554
H          8.39141        3.91866        5.44963
H         10.41340        2.03800        4.07359
H          9.44602        3.42394        3.33069
