96

C         21.38338       -7.19063        1.46019
C         21.85764       -8.48821        1.61253
F         23.16360       -8.73364        1.44625
C         20.99935       -9.53674        1.91507
C         19.63912       -9.28606        2.09616
C         19.12900       -7.98905        1.94322
C         20.01500       -6.92521        1.59520
C         19.51148       -5.63615        1.34607
C         18.14237       -5.42605        1.39052
C         17.30187       -6.46044        1.83206
C         17.76222       -7.73476        2.11014
C         15.90935       -5.98140        1.95351
O         14.95707       -6.62114        2.34646
C         15.96192       -4.53043        1.58509
C         17.27846       -4.29646        0.97014
C         17.56015       -3.44247       -0.04575
C         16.54332       -2.68014       -0.69984
N         15.72482       -2.07672       -1.25982
C         18.86197       -3.30518       -0.60475
N         19.92732       -3.18136       -1.04703
C         15.03095       -3.70544        2.09253
C         15.16039       -2.25653        2.24331
N         16.33714       -1.69698        1.91244
C         16.45765       -0.37584        2.09153
C         15.47886        0.38468        2.66733
C         14.32281       -0.28584        3.01918
N         14.13710       -1.60383        2.79958
C         13.17177        0.38607        3.62113
C         13.24684        1.49975        4.35873
N         12.20151        2.13547        4.98671
C         12.24043        3.31541        5.66987
S         13.50947        4.47747        5.44619
C         12.85674        5.50545        6.60295
N         13.50739        6.73818        6.88689
O         13.83043        6.93016        8.06509
O         13.66157        7.52433        5.94407
C         11.71218        5.03192        7.18333
C         11.31001        3.78843        6.59267
C         10.06273        3.14167        6.90043
C          9.40906        3.27974        8.06728
C          8.07074        2.77548        8.29736
C          7.35963        2.87004        9.43169
C          6.06367        2.25833        9.60063
C          5.63995        2.24261       10.87128
C          6.54384        2.90034       11.79828
S          7.88008        3.63707       10.90824
C          6.39587        2.97186       13.13397
C          5.34499        2.35475       13.92821
C          5.25805        2.84217       15.17543
C          6.22385        3.88448       15.42636
S          7.45169        3.91028       14.18532
C          6.19167        4.83644       16.36411
C          5.13358        5.05361       17.32214
C          4.43653        6.19906       17.41156
C          3.55139        6.67027       18.48703
C          2.70922        5.91544       19.24184
C          1.83636        6.48144       20.21114
N          1.13941        6.93624       21.00765
C          2.59588        4.50514       19.06236
N          2.51249        3.35820       18.91213
C          3.63285        8.15998       18.46529
C          4.21515        8.54821       17.25440
C          4.65165        7.37195       16.49289
O          5.10066        7.39053       15.36685
C          4.45355        9.86719       16.88743
C          4.13855       10.87160       17.82806
C          3.59317       10.49099       19.06494
C          3.32286        9.13902       19.40123
S          3.33582       11.86827       20.07722
C          3.93068       12.92448       18.90320
C          4.31761       12.29540       17.75082
Br         4.05709       14.77566       19.15952
H         22.09143       -6.40555        1.20785
H         21.39329      -10.54406        2.00424
H         18.97693      -10.11675        2.33206
H         20.20105       -4.83834        1.08461
H         17.06527       -8.50948        2.41729
H         14.13722       -4.11676        2.55937
H         17.38726        0.06146        1.74104
H         15.62418        1.44530        2.81452
H         12.21680       -0.09657        3.44190
H         14.21100        1.96756        4.54371
H         11.37396        1.54968        5.06744
H         11.15790        5.57223        7.94157
H          9.59608        2.56765        6.10200
H          9.88423        3.81198        8.88857
H          7.61248        2.26277        7.45409
H          5.51942        1.81484        8.77900
H          4.70878        1.78741       11.17549
H          4.69201        1.58144       13.55007
H          4.53121        2.51848       15.90773
H          6.96660        5.60401       16.35034
H          5.02786        4.25446       18.05026
H          4.91368       10.10316       15.93158
H          2.92889        8.91129       20.38570
H          4.72805       12.80964       16.88964
