101

C         16.50438       -8.19642        2.20978
C         16.84702       -9.16060        3.15024
F         18.13942       -9.37977        3.42442
C         15.87450       -9.90667        3.80178
C         14.52715       -9.68655        3.51353
C         14.15094       -8.73192        2.55637
C         15.15920       -7.97460        1.88902
C         14.80714       -7.03184        0.90418
C         13.47535       -6.87731        0.54967
C         12.50046       -7.60351        1.25144
C         12.80267       -8.51878        2.24634
C         11.14903       -7.20801        0.81608
O         10.10026       -7.66279        1.22088
C         11.35714       -6.06828       -0.13987
C         12.78793       -6.07832       -0.50003
C         13.34124       -5.69673       -1.67539
C         12.53440       -5.24839       -2.76927
N         11.88214       -4.91558       -3.67044
C         14.73619       -5.78757       -1.95557
N         15.87971       -5.85308       -2.16771
C         10.34888       -5.18183       -0.21335
C         10.43265       -3.81355       -0.63332
S         11.88308       -2.91563       -0.39705
C         11.26257       -1.43202       -1.00909
C          9.90912       -1.58069       -1.25059
C          9.44245       -2.94774       -1.06865
C          8.10835       -3.33904       -1.25637
C          7.27255       -2.25330       -1.57953
F          5.96065       -2.50109       -1.72766
C          7.72691       -0.91297       -1.73518
F          6.81885        0.03820       -2.00804
C          9.07031       -0.51382       -1.60227
C         12.13059       -0.30751       -1.18072
C         13.22924       -0.12612       -0.43049
C         14.12534        0.98740       -0.59819
C         15.45090        0.88437       -0.81899
C         16.18006       -0.41518       -1.05268
C         16.29491        2.12912       -0.91972
N         16.84242        2.43528        0.38280
C         18.07290        2.06509        0.85754
C         18.59049        2.36739        2.05536
C         19.90248        1.91505        2.48024
C         20.49911        2.15696        3.65870
C         21.81416        1.66984        4.00590
C         22.22022        2.02924        5.23194
C         21.24427        2.81191        5.97261
S         19.81252        3.07765        4.97272
C         21.36690        3.24461        7.24362
C         22.52400        3.08207        8.10652
C         22.31881        3.46110        9.37716
C         20.97360        3.92553        9.63087
S         20.08130        4.06021        8.13082
C         20.47568        4.18497       10.85243
C         19.10662        4.54827       11.14680
C         18.04030        3.77117       10.83330
C         16.86558        4.55828       11.09830
C         15.57973        4.32200       10.78564
C         14.66275        5.41555       11.02517
C         13.37382        5.56752       10.66942
C         12.91719        6.91441       11.04122
C         13.91574        7.56138       11.68624
C         15.05846        6.67966       11.66720
C         16.33614        6.88970       12.03519
C         17.27579        5.83728       11.69214
C         18.61880        5.80922       11.73235
C         11.64650        7.50087       10.70007
C         11.53070        8.58258        9.91834
H         17.30167       -7.64128        1.72251
H         16.17100      -10.65817        4.52655
H         13.77510      -10.27773        4.03232
H         15.59398       -6.44928        0.43395
H         12.00430       -9.05131        2.75655
H          9.38811       -5.46860        0.21782
H          7.71386       -4.34021       -1.15128
H          9.36643        0.52008       -1.71704
H         11.89155        0.40226       -1.96951
H         13.50479       -0.81216        0.36787
H         13.67261        1.96883       -0.46820
H         15.50605       -1.23773       -1.31370
H         16.74761       -0.70724       -0.16416
H         16.88047       -0.31635       -1.89013
H         15.68319        2.97723       -1.24997
H         17.08341        2.01561       -1.67252
H         16.20359        2.85355        1.05326
H         18.63916        1.46830        0.14543
H         18.01414        2.98577        2.73844
H         20.43957        1.31316        1.74869
H         22.40425        1.06231        3.33303
H         23.17300        1.72915        5.64353
H         23.46841        2.68959        7.75798
H         23.06819        3.39804       10.15391
H         21.11718        4.09740       11.72559
H         18.05068        2.80468       10.35624
H         15.24678        3.41674       10.29631
H         12.76964        4.85764       10.12689
H         13.90709        8.57227       12.05857
H         16.68074        7.81603       12.47429
H         19.26726        6.60451       12.06437
H         10.75729        6.98783       11.05588
H         12.40233        9.08755        9.51049
H         10.55584        8.97251        9.64620
