90

C          3.83732        5.34005       -7.04719
C          2.49512        5.54732       -7.34229
F          2.07759        5.43893       -8.61014
C          1.58422        5.88131       -6.34933
C          2.01251        5.98647       -5.02535
C          3.36103        5.78315       -4.69493
C          4.29506        5.47880       -5.73117
C          5.66571        5.36290       -5.44051
C          6.10066        5.58949       -4.14483
C          5.15658        5.77323       -3.12287
C          3.79958        5.88611       -3.36786
C          5.82756        5.81002       -1.80616
O          5.29297        5.92984       -0.72465
C          7.28301        5.59881       -2.09916
C          7.44545        5.79113       -3.54593
C          8.46600        6.41568       -4.17541
C          9.51352        7.06057       -3.45308
N         10.34255        7.64211       -2.88703
C          8.50266        6.61206       -5.58377
N          8.52841        6.74788       -6.73787
C          8.07818        5.08165       -1.14751
C          9.41524        4.50979       -1.30892
N          9.90867        4.37747       -2.55278
C         11.14532        3.86326       -2.65711
C         11.86701        3.41941       -1.57967
C         11.25406        3.55345       -0.35088
N         10.03492        4.10689       -0.19288
C         11.93416        3.06556        0.85482
C         11.76159        3.62017        2.06416
C         12.43926        3.18359        3.24680
S         11.60363        3.41124        4.74558
C         12.87871        2.78164        5.73244
C         13.93348        2.39434        4.92229
C         13.68602        2.63547        3.50187
C         14.64927        2.38897        2.50840
C         15.84353        1.85114        3.01512
F         16.81737        1.56447        2.13579
C         16.08234        1.61279        4.39102
F         17.27410        1.11064        4.75216
C         15.15260        1.88944        5.40857
C         12.65689        2.81920        7.14741
C         13.14948        1.90854        7.99956
C         12.96041        1.97953        9.44020
C         13.46173        1.12137       10.34373
C         13.24407        1.21365       11.76894
C         13.75227        0.18264       12.46100
C         14.41243       -0.81388       11.63309
S         14.44816       -0.26455        9.95836
C         14.89980       -2.00493       12.03231
C         14.86162       -2.55031       13.37593
C         15.34499       -3.79781       13.47311
C         15.81318       -4.34142       12.21600
S         15.64741       -3.16716       10.93508
C         16.29809       -5.58411       12.06655
C         16.75364       -6.09451       10.82039
S         15.67765       -6.92582        9.74382
C         16.89814       -7.21397        8.57008
C         16.66320       -7.96512        7.30738
C         16.23093       -7.06321        6.16079
C         18.08234       -6.69991        8.99613
C         17.99523       -6.08708       10.25015
N         19.13656       -5.56026       10.78933
C         20.10167       -5.77647        9.88679
S         19.76310       -6.62920        8.34463
H          4.51567        5.09619       -7.86055
H          0.54639        6.05984       -6.61226
H          1.28768        6.24943       -4.25735
H          6.36440        5.13521       -6.24090
H          3.11309        6.07422       -2.54711
H          7.69094        4.97824       -0.13441
H         11.55207        3.82382       -3.66363
H         12.86018        3.00884       -1.70076
H         12.58915        2.21752        0.69712
H         11.05577        4.44467        2.16850
H         14.55573        2.59218        1.45286
H         15.41648        1.72571        6.44336
H         12.03758        3.62708        7.53317
H         13.71501        1.06144        7.62400
H         12.35293        2.80902        9.79837
H         12.70867        2.03613       12.22363
H         13.66467        0.09542       13.53456
H         14.46501       -2.00875       14.22298
H         15.37978       -4.35861       14.39719
H         16.37465       -6.24778       12.92204
H         15.89254       -8.72898        7.46849
H         17.56872       -8.50927        7.01290
H         15.34136       -6.47948        6.41989
H         15.99232       -7.66680        5.27839
H         17.02601       -6.36299        5.88379
H         21.11853       -5.44770       10.05894
