87

C          8.92844       -5.89196      -11.95884
C          8.92760       -7.30050      -12.17971
N          8.93968       -8.44669      -12.35649
C          9.07155       -4.93755      -12.93387
F          9.21062       -5.21008      -14.20353
C          9.09280       -3.62774      -12.42046
F          9.25291       -2.56788      -13.16701
C          8.98238       -3.58803      -11.05199
S          8.77302       -5.16593      -10.41103
C          9.09603       -2.41496      -10.24740
C          9.30711       -1.43909       -9.58191
C          9.67382       -0.31506       -8.80897
O         10.72576       -0.47036       -7.94588
C          9.24416        0.96711       -8.73118
C          8.28972        1.87890       -9.26442
O          7.42242        1.66443      -10.09159
N          8.57153        3.06644       -8.62435
C          9.62725        2.99672       -7.73487
O         10.07282        3.90943       -7.06426
C         10.05968        1.62879       -7.80196
C         10.98842        0.74726       -7.29598
C         12.03775        0.84677       -6.34162
C         12.28669        1.94876       -5.61853
C         13.33194        2.00165       -4.61608
C         13.63331        3.04483       -3.81171
C         12.97708        4.39961       -3.87412
C         14.71111        2.96304       -2.75017
N         14.77065        1.63108       -2.19189
C         15.91312        1.01024       -1.77212
C         16.01733       -0.25355       -1.35402
C         17.27695       -0.82374       -0.92602
C         17.59866       -2.12257       -0.98451
C         18.81925       -2.69064       -0.46443
C         18.82147       -4.03184       -0.46797
C         17.58862       -4.60909       -0.97937
S         16.59200       -3.35360       -1.69761
C         17.16653       -5.87398       -0.80712
C         17.86189       -6.90978       -0.06910
C         17.05502       -7.90417        0.32563
C         15.67973       -7.71590       -0.08541
S         15.55831       -6.44342       -1.26352
C         14.65059       -8.34449        0.49959
C         13.24186       -8.14377        0.22958
C         12.20039       -8.28886        1.06496
C         10.90401       -7.66482        0.61225
O         10.54650       -7.41502       -0.51737
C         10.16499       -7.34954        1.84490
C          8.99212       -6.61174        1.92990
C          8.46071       -6.35250        3.20049
C          9.14489       -6.82757        4.35590
C          8.60402       -6.57463        5.62384
C          7.41271       -5.86954        5.74812
C          6.74291       -5.39118        4.63093
C          7.26678       -5.62816        3.35864
F          6.90272       -5.65157        6.96725
C         10.34756       -7.55044        4.22447
C         10.84901       -7.84567        2.96311
C         12.03481       -8.62739        2.48974
C         12.63878       -9.61070        3.20322
C         13.58252      -10.52048        2.65173
N         14.37021      -11.27414        2.25089
C         12.32267       -9.88573        4.56540
N         12.07925      -10.11062        5.67948
H          8.06610        3.91807       -8.79489
H         12.64113       -0.04727       -6.19919
H         11.68389        2.83902       -5.73848
H         13.90844        1.08184       -4.49947
H         12.53331        4.62183       -4.84736
H         13.71724        5.18709       -3.68893
H         12.20237        4.47494       -3.10473
H         14.50228        3.66007       -1.93192
H         15.66934        3.24878       -3.20090
H         13.89637        1.25603       -1.83160
H         16.80039        1.63456       -1.85258
H         15.13671       -0.89234       -1.35879
H         17.98548       -0.12148       -0.49245
H         19.62502       -2.08574       -0.07206
H         19.63601       -4.62200       -0.07386
H         18.90697       -6.85381        0.19788
H         17.37383       -8.73438        0.94067
H         14.92289       -9.01995        1.29324
H         13.03056       -7.73306       -0.76258
H          8.51390       -6.24563        1.02473
H          9.09074       -6.93091        6.52809
H          5.81623       -4.84001        4.75726
H          6.73112       -5.24622        2.49154
H         10.86054       -7.85650        5.13045
