104

C          5.93425       -7.32543        2.37424
F          5.76012       -8.64037        2.56320
C          7.21431       -6.79871        2.30296
F          8.27856       -7.60696        2.39406
C          7.39162       -5.43279        2.14550
F          8.62725       -4.91434        2.10700
C          6.28594       -4.60206        2.01330
F          6.46514       -3.28024        1.86286
C          4.97981       -5.11487        2.02009
C          4.82620       -6.49128        2.24522
F          3.60483       -7.02773        2.38391
N          3.91043       -4.23409        1.74783
C          2.72918       -4.51174        1.12800
S          2.62399       -5.64635       -0.17128
C          0.99706       -5.30290       -0.44620
N          0.28384       -5.96188       -1.50688
O         -0.91105       -5.64927       -1.64009
O          0.89298       -6.77682       -2.21157
C          0.49820       -4.35527        0.41707
C          1.50332       -3.87651        1.32438
C          1.21143       -2.84809        2.29173
C          2.00016       -2.43288        3.29695
C          1.67417       -1.34349        4.21735
C          0.40402       -1.22635        4.78778
C          0.17885       -0.20866        5.70056
C          1.22058        0.66742        6.07602
C          2.48553        0.54999        5.52831
C          2.70724       -0.46092        4.59415
C          0.74277        1.56123        7.10105
C         -0.60595        1.26406        7.38049
C         -1.09403        0.09566        6.49933
C         -1.53806       -1.11049        7.36914
C         -0.47180       -1.68510        8.30290
C         -2.24368        0.60654        5.58235
C         -2.86721       -0.40970        4.62676
C         -1.29392        1.95408        8.37058
C         -0.61555        2.93473        9.11103
C          0.72835        3.23534        8.80566
C          1.41466        2.54702        7.80264
C         -1.34715        3.63559       10.17623
C         -0.78263        4.08273       11.30966
C         -1.54968        4.72929       12.35238
C         -1.09051        5.22179       13.51398
C         -1.94626        5.83562       14.49981
C         -1.29389        6.26665       15.58764
C          0.14095        6.02661       15.55287
S          0.57317        5.21739       14.04594
C          1.01764        6.35914       16.52311
C          0.68981        7.02235       17.77290
C          1.73350        7.19944       18.59296
C          2.97680        6.69137       18.06435
S          2.74892        6.02477       16.46014
C          4.17225        6.65776       18.66928
C          4.47948        7.14555       19.99170
C          4.97902        6.34564       20.96712
C          5.15516        7.17425       22.13431
C          5.58729        6.86410       23.36817
C          5.62507        7.95699       24.32287
C          5.97517        7.97695       25.62077
C          5.80995        9.33720       26.15711
C          5.38886       10.15450       25.16457
C          5.23712        9.33608       23.98625
C          4.81451        9.64474       22.74763
C          4.75199        8.54794       21.79993
C          4.35008        8.51304       20.51945
C          6.07586        9.75450       27.50990
C          5.18693       10.39658       28.27812
H          4.16696       -3.25157        1.84340
H         -0.52887       -4.00562        0.39091
H          0.24225       -2.36206        2.17853
H          2.96405       -2.87970        3.50117
H         -0.37839       -1.94007        4.55431
H          3.29582        1.20534        5.82910
H          3.70361       -0.56665        4.16953
H         -1.87197       -1.93497        6.72882
H         -2.40398       -0.82040        7.97793
H          0.35569       -2.12824        7.74017
H         -0.90905       -2.47908        8.91711
H         -0.06548       -0.92931        8.98044
H         -1.89398        1.45812        4.98237
H         -3.05623        0.99494        6.21053
H         -2.16433       -0.72886        3.85365
H         -3.71930        0.04420        4.10925
H         -3.24237       -1.29364        5.14896
H         -2.32965        1.71039        8.58667
H          1.26060        4.00915        9.35461
H          2.45571        2.77537        7.60071
H         -2.41631        3.74663       10.01201
H          0.28115        3.94440       11.48473
H         -2.62070        4.80745       12.15609
H         -3.01423        5.92846       14.36601
H         -1.79815        6.74177       16.41602
H         -0.30955        7.33926       18.03073
H          1.65364        7.65819       19.56906
H          5.01420        6.19587       18.15518
H          5.19584        5.29164       20.90803
H          5.88411        5.86638       23.66088
H          6.30989        7.13678       26.21185
H          5.19346       11.21302       25.22662
H          4.52091       10.64535       22.45417
H          3.99237        9.34526       19.93341
H          7.04690        9.48538       27.91782
H          4.19266       10.64369       27.91840
H          5.43041       10.66608       29.30051
