92

C         -9.10402       -2.73232       -3.53201
C         -9.94168       -3.59181       -2.89637
C        -10.06856       -4.96522       -3.24714
N        -10.19091       -6.08864       -3.53077
C        -10.81663       -3.19987       -1.84055
N        -11.53660       -2.89773       -0.98334
C         -8.20759       -3.06555       -4.68975
C         -7.61591       -1.88675       -5.15400
C         -6.75324       -1.82124       -6.24386
C         -6.44836       -3.02353       -6.91820
C         -7.01434       -4.21726       -6.44871
C         -7.89342       -4.25953       -5.33511
S         -6.49348       -5.56698       -7.39562
C         -5.55624       -4.58400       -8.39715
C         -5.61142       -3.25764       -8.06241
Br        -4.53707       -5.24594       -9.82264
C         -8.02376       -0.73548       -4.33973
O         -7.64904        0.41231       -4.47832
C         -8.96273       -1.26984       -3.30708
C         -9.50191       -0.43823       -2.40364
N         -9.42228        0.94219       -2.28906
C         -9.98379        1.73460       -1.31792
S        -10.89927        1.07091       -0.00269
C        -11.16251        2.57510        0.70186
N        -11.91862        2.68403        1.92327
O        -12.03459        3.81855        2.39840
O        -12.39415        1.64981        2.41109
C        -10.59697        3.60165       -0.01333
C         -9.92720        3.12432       -1.19357
C         -9.30732        3.99448       -2.15359
C         -8.77854        5.20108       -1.88014
C         -8.22197        6.06971       -2.89048
C         -8.88176        6.58182       -3.94911
C        -10.35207        6.39921       -4.22377
C         -8.15742        7.43522       -4.95787
N         -7.68250        6.56617       -6.01443
C         -8.35865        6.27523       -7.17253
C         -7.96553        5.46272       -8.16094
N         -8.61049        5.18799       -9.35283
C         -9.92148        4.51166       -9.48193
C        -11.12344        5.21620       -8.86915
S        -11.77767        6.37291      -10.09579
C        -10.76047        5.74546      -11.45773
C        -10.18154        4.39183      -11.01433
N         -8.86997        4.08152      -11.63679
S         -7.63672        4.65427      -10.62358
C         -8.59148        4.01901      -12.99764
C         -7.38846        3.88087      -13.61959
C         -7.58262        4.23661      -15.00328
C         -6.68868        4.47569      -15.98094
C         -7.22423        5.07564      -17.18900
C         -6.60167        5.61848      -18.25256
C         -7.59746        6.21987      -19.15540
C         -8.83732        5.98963      -18.66613
C         -8.66197        5.30353      -17.40992
C         -9.56038        4.97243      -16.46643
C         -9.00863        4.48267      -15.22032
C         -9.60670        4.26493      -14.04020
C         -7.34715        6.99244      -20.34569
C         -6.62300        8.11873      -20.35563
H         -6.33077       -0.87147       -6.56073
H         -8.28286       -5.22453       -5.03574
H         -5.07864       -2.47837       -8.59409
H        -10.11956       -0.84822       -1.61957
H         -8.86949        1.37859       -3.03557
H        -10.67837        4.64346        0.27756
H         -9.29948        3.65793       -3.18971
H         -8.70774        5.57317       -0.86095
H         -7.16936        6.31361       -2.74538
H        -10.89030        5.92803       -3.39748
H        -10.50183        5.78427       -5.11618
H        -10.82850        7.37164       -4.38991
H         -7.29974        7.94234       -4.50053
H         -8.80643        8.22936       -5.34724
H         -6.95771        5.90521       -5.74798
H         -9.28498        6.83301       -7.26098
H         -6.97056        5.02422       -8.08882
H         -9.82643        3.51061       -9.03728
H        -10.92152        5.73792       -7.93605
H        -11.91292        4.48625       -8.66162
H         -9.98905        6.48439      -11.69414
H        -11.40784        5.64081      -12.33153
H        -10.89643        3.58258      -11.21241
H         -6.42805        3.73436      -13.15379
H         -5.62150        4.35137      -15.85359
H         -5.53777        5.67141      -18.41993
H         -9.77830        6.33219      -19.06395
H        -10.61917        5.17095      -16.56115
H        -10.66374        4.35972      -13.86939
H         -7.79201        6.62747      -21.26690
H         -6.18567        8.53327      -19.45171
H         -6.46816        8.66849      -21.27904
