103

C         -5.20977       -8.35113       -2.29127
C         -3.99683       -8.93327       -2.11823
C         -3.81168      -10.34848       -2.05250
N         -3.65315      -11.49255       -1.98669
C         -2.78259       -8.18334       -2.03164
N         -1.79956       -7.58072       -1.93703
C         -6.49206       -9.08054       -2.57069
C         -7.40612       -8.15998       -3.07876
C         -8.68748       -8.46815       -3.51371
C         -9.12400       -9.79568       -3.36689
C         -8.24638      -10.73565       -2.80506
C         -6.91824      -10.39983       -2.41205
S         -9.02192      -12.27760       -2.66510
C        -10.46373      -11.69049       -3.32316
C        -10.39819      -10.37306       -3.68291
Br       -12.01044      -12.72666       -3.53005
C         -6.88571       -6.79545       -3.02028
O         -7.52622       -5.81972       -3.34975
C         -5.51160       -6.89154       -2.42680
C         -4.82776       -5.80275       -2.03037
C         -5.28758       -4.45818       -2.19833
S         -4.76501       -3.58241       -3.58539
C         -5.53271       -2.15319       -3.06904
C         -6.19387       -2.29522       -1.86467
C         -6.93808       -1.17777       -1.20285
C         -6.05864       -3.64607       -1.36673
C         -6.63509       -4.14084       -0.14588
C         -6.54236       -3.53284        1.04762
C         -7.05874       -4.11118        2.26756
C         -6.58111       -3.76344        3.47181
C         -7.01071       -4.39891        4.69763
C         -6.29585       -4.48938        5.83850
C         -4.90176       -3.95153        6.03557
C         -6.88328       -5.14672        7.06746
N         -6.59214       -6.56860        7.03924
C         -6.53788       -7.36857        8.15491
C         -6.46398       -8.70542        8.20381
C         -6.27777       -9.41067        9.45789
C         -5.19158      -10.13437        9.77049
C         -4.91511      -10.66089       11.08741
C         -3.61428      -10.92957       11.27785
C         -2.78917      -10.63887       10.11406
S         -3.82686      -10.40043        8.70804
C         -1.46319      -10.40188       10.11255
C         -0.62281      -10.30176       11.29062
C          0.55774       -9.70823       11.06014
C          0.76642       -9.34492        9.67508
S         -0.53354       -9.95975        8.68179
C          1.80462       -8.61093        9.24024
C          2.07541       -8.16207        7.88620
C          1.28135       -7.42071        7.09556
C          1.56182       -7.33840        5.62861
O          2.62315       -7.47815        5.06064
C          0.24018       -7.12781        5.00320
C         -0.03484       -7.16866        3.64742
C         -1.37458       -7.10544        3.25006
C         -2.40850       -7.01966        4.23317
C         -3.74668       -7.00502        3.81285
C         -4.05350       -7.06392        2.45969
C         -3.05186       -7.12477        1.50378
C         -1.71382       -7.14918        1.89173
F         -5.33313       -7.07378        2.06337
C         -2.08357       -6.95743        5.60442
C         -0.75163       -6.97787        5.98798
C         -0.06841       -6.88447        7.30422
C         -0.50177       -6.21965        8.39979
C          0.38896       -5.85538        9.45484
N          1.12104       -5.51529       10.29054
C         -1.83250       -5.74538        8.54376
N         -2.91518       -5.35553        8.69958
H         -9.33617       -7.69437       -3.91381
H         -6.30006      -11.17864       -1.97431
H        -11.21894       -9.81944       -4.12354
H         -3.86213       -5.87205       -1.54482
H         -5.46276       -1.26183       -3.67788
H         -7.14973       -0.36652       -1.90754
H         -6.34039       -0.75904       -0.38618
H         -7.89508       -1.52175       -0.79870
H         -7.12629       -5.11018       -0.20441
H         -6.00833       -2.58974        1.13656
H         -7.80087       -4.90113        2.17610
H         -5.80617       -3.00426        3.53756
H         -8.00118       -4.85290        4.66694
H         -4.48584       -3.46307        5.15146
H         -4.22047       -4.76484        6.29711
H         -4.89201       -3.21588        6.84660
H         -7.96808       -4.99463        7.10646
H         -6.46796       -4.68160        7.97008
H         -6.73578       -7.04167        6.15259
H         -6.50559       -6.79388        9.08091
H         -6.45183       -9.29761        7.29390
H         -7.02798       -9.21657       10.22217
H         -5.67152      -10.75868       11.85392
H         -3.21186      -11.28282       12.21656
H         -0.94953      -10.59550       12.27812
H          1.27553       -9.48049       11.83665
H          2.56244       -8.29910        9.95937
H          3.02679       -8.51873        7.48393
H          0.77417       -7.27498        2.92987
H         -4.56228       -6.94711        4.52853
H         -3.32096       -7.15044        0.45951
H         -0.94272       -7.20520        1.12412
H         -2.88464       -6.92193        6.33893
