107

C         -3.52348        1.44362        1.99002
C         -2.47542        1.62943        1.15299
C         -1.33882        0.77277        1.15258
N         -0.41701        0.06960        1.14871
C         -2.45760        2.64746        0.15474
N         -2.44915        3.48287       -0.65185
C         -3.67778        0.33356        2.98602
C         -5.03366        0.21614        3.29142
C         -5.56978       -0.71290        4.17265
C         -4.66661       -1.49650        4.91380
C         -3.29084       -1.35239        4.67268
C         -2.77453       -0.46838        3.68107
S         -2.37951       -2.34344        5.76203
C         -3.77488       -2.88373        6.54738
C         -4.92958       -2.41599        5.98368
Br        -3.75280       -3.99019        8.05916
C         -5.80219        1.31896        2.71139
O         -6.98814        1.48832        2.89921
C         -4.80875        2.18193        1.98237
C         -5.09777        3.44049        1.59756
C         -6.33426        4.11389        1.85864
C         -6.47761        4.69420        3.10325
S         -8.01175        5.34972        3.32416
C         -8.50301        4.88434        1.75077
C         -7.50744        4.27205        1.00254
C         -7.84645        3.92697       -0.35626
C         -6.81094        3.25251       -1.26070
C         -5.90192        4.20619       -2.02770
C         -9.19840        4.22678       -0.88407
C         -9.45863        3.95781       -2.36643
C         -9.89900        2.53527       -2.69346
C        -10.22167        4.79075       -0.02018
C        -11.65542        5.15159       -0.13999
C        -12.14520        5.68385        1.04062
S        -11.00504        5.79519        2.26290
C         -9.80216        5.10624        1.27241
C        -12.56746        4.98657       -1.25355
C        -13.86013        5.38300       -1.23745
C        -14.79081        5.16379       -2.28745
S        -16.36740        5.85014       -2.15509
C        -16.90142        5.20048       -3.66138
C        -15.88936        4.42863       -4.21577
C        -14.68006        4.44356       -3.45408
N        -15.98452        3.69708       -5.44190
O        -16.69909        2.69022       -5.44824
O        -15.26712        4.09720       -6.36764
C        -18.23093        5.52748       -4.09021
C        -19.29370        4.77003       -3.77368
C        -20.66761        4.97179       -4.19805
C        -21.40723        3.84667       -4.12250
C        -20.61683        2.70593       -3.67856
S        -19.17982        3.29705       -2.85432
C        -20.77745        1.40839       -3.99577
C        -21.87908        0.78632       -4.70250
C        -21.56707       -0.41397       -5.21880
C        -20.18403       -0.78539       -5.00335
S        -19.46428        0.23327       -3.79742
C        -19.54378       -1.76116       -5.66396
C        -18.11522       -2.03071       -5.63991
C        -17.52542       -3.22549       -5.78607
C        -18.02662       -4.60480       -5.82546
C        -19.05677       -5.11925       -5.10074
C        -19.41679       -6.49902       -5.15162
N        -19.73324       -7.60743       -5.18616
C        -19.81292       -4.35887       -4.15496
N        -20.46866       -3.82024       -3.35790
C        -17.00889       -5.40976       -6.56774
C        -15.85892       -4.63070       -6.72696
C        -16.08395       -3.26721       -6.21211
O        -15.27132       -2.36663       -6.21349
C        -14.68418       -5.09412       -7.31527
C        -14.64876       -6.43995       -7.75218
C        -15.80834       -7.21786       -7.61800
C        -17.00618       -6.71337       -7.05368
S        -15.55883       -8.82316       -8.20670
C        -13.95088       -8.49682       -8.59770
C        -13.57942       -7.20421       -8.33830
Br       -12.79391       -9.78453       -9.31405
H         -6.64071       -0.75377        4.35251
H         -1.69849       -0.39061        3.56106
H         -5.92358       -2.65395        6.34489
H         -4.32641        4.09249        1.20136
H         -5.76801        4.72802        3.91809
H         -7.28311        2.57953       -1.97806
H         -6.19640        2.57768       -0.65842
H         -6.40737        4.62973       -2.90191
H         -5.03012        3.65955       -2.40599
H         -5.54720        5.03394       -1.40858
H         -8.56796        4.20190       -2.95352
H        -10.19855        4.66863       -2.74266
H         -9.12954        1.79359       -2.45972
H        -10.10569        2.44985       -3.76640
H        -10.80029        2.25177       -2.14455
H        -13.13987        6.02278        1.28450
H        -12.18666        4.49081       -2.13677
H        -14.27333        5.88717       -0.37011
H        -13.77944        3.91895       -3.74927
H        -18.35563        6.42189       -4.69198
H        -21.03793        5.91856       -4.56904
H        -22.43741        3.77698       -4.44417
H        -22.85335        1.24435       -4.79891
H        -22.25220       -1.02983       -5.78371
H        -20.11480       -2.35705       -6.37217
H        -17.48532       -1.13567       -5.64047
H        -13.81966       -4.44309       -7.41674
H        -17.86668       -7.36928       -7.00303
H        -12.58824       -6.81273       -8.53372
