105

C         -2.00090        0.97947        3.71912
C         -0.70906        1.36194        3.56637
C          0.38315        0.56379        4.00731
N          1.27288       -0.09362        4.36456
C         -0.35328        2.62724        3.01230
N         -0.06260        3.64755        2.55512
C         -2.49848       -0.25251        4.40361
C         -3.83712       -0.04350        4.74776
C         -4.65754       -1.00389        5.31898
C         -4.09958       -2.27742        5.55474
C         -2.74726       -2.49252        5.24438
C         -1.92481       -1.48960        4.66612
S         -2.27063       -4.10626        5.64195
C         -3.83003       -4.51223        6.14388
C         -4.71839       -3.47547        6.05518
Br        -4.29960       -6.21943        6.75552
C         -4.28008        1.29081        4.31791
O         -5.28546        1.84975        4.69652
C         -3.20440        1.77259        3.39399
C         -3.43631        2.56373        2.33613
C         -4.72522        3.07014        1.99923
S         -5.14737        4.65259        2.47536
C         -6.63823        4.63429        1.60700
C         -6.82387        3.40249        0.98836
C         -5.73597        2.48499        1.25216
C         -5.71998        1.09113        0.68513
C         -7.10605        0.63632        0.21130
C         -7.75105        1.70818       -0.67859
N         -9.01520        1.22240       -1.24826
C         -7.99496        3.00214        0.12344
C         -7.39405        5.84615        1.61408
C         -8.70012        5.92531        1.31996
C         -9.43520        7.17447        1.26637
C         -9.18067        8.21316        0.45593
C         -9.98354        9.41041        0.39250
C         -9.63872       10.23500       -0.60656
C         -8.53655        9.74512       -1.41592
S         -7.88969        8.26678       -0.71551
C         -8.09580       10.27270       -2.57237
C         -8.63802       11.43517       -3.24829
C         -8.13873       11.62697       -4.47697
C         -7.15733       10.63704       -4.86174
S         -6.80693        9.56117       -3.53832
C         -6.62223       10.55344       -6.08852
C         -5.67866        9.55098       -6.54635
C         -5.12063        9.46876       -7.77113
C         -5.36015       10.42920       -8.90197
C         -4.21284        8.30610       -8.10517
N         -2.83493        8.66969       -7.81231
C         -1.86927        7.75454       -7.44803
C         -0.59242        7.98085       -7.09294
C          0.27777        6.93656       -6.62544
S         -0.37245        5.58196       -5.78054
C          1.14716        4.83961       -5.52514
C          2.16075        5.61718       -6.06240
C          1.66680        6.83330       -6.68347
C          2.61416        7.80419       -7.34743
C          4.07969        7.59757       -6.92547
C          4.47560        6.11572       -6.99423
N          5.90054        5.94648       -6.67546
C          3.62957        5.28907       -6.01324
C          1.14525        3.58662       -4.84391
C          2.15071        3.16194       -4.06988
H         -5.70252       -0.78720        5.52684
H         -0.89805       -1.73540        4.41474
H         -5.76488       -3.54961        6.32185
H         -2.65833        2.78602        1.60951
H         -5.35408        0.38100        1.43535
H         -5.02094        1.06394       -0.15995
H         -7.74672        0.44145        1.08243
H         -7.00686       -0.31188       -0.33048
H         -7.07359        1.93021       -1.51323
H         -9.66592        0.98596       -0.49953
H         -8.85349        0.36130       -1.76835
H         -8.86184        2.86137        0.78267
H         -8.23543        3.80689       -0.58246
H         -6.85880        6.76211        1.86082
H         -9.30253        5.04798        1.11565
H        -10.31251        7.20171        1.90845
H        -10.79856        9.60125        1.07632
H        -10.15366       11.16270       -0.80842
H         -9.39883       12.06983       -2.81832
H         -8.45174       12.42461       -5.13627
H         -6.95143       11.28446       -6.81991
H         -5.41116        8.77818       -5.82379
H         -5.88928       11.33576       -8.59988
H         -5.95240        9.94581       -9.68559
H         -4.40747       10.75359       -9.33118
H         -4.30795        8.04081       -9.16487
H         -4.51143        7.41567       -7.53613
H         -2.69547        9.60429       -7.43503
H         -2.26590        6.74044       -7.45535
H         -0.19373        8.98841       -7.15501
H          2.32551        8.83718       -7.12434
H          2.53738        7.67052       -8.43449
H          4.22126        7.97151       -5.90210
H          4.72908        8.19776       -7.57464
H          4.30844        5.74831       -8.01473
H          6.14909        4.95854       -6.73098
H          6.47275        6.42704       -7.36753
H          3.97810        5.47608       -4.98885
H          3.78240        4.22408       -6.22819
H          0.26056        2.95824       -4.93288
H          3.04496        3.74342       -3.88325
H          2.08416        2.20179       -3.56960
