124

C        -12.21895      -11.17790       11.19193
C        -13.03350      -12.23489       10.94252
C        -12.58921      -13.58981       11.00034
N        -12.23331      -14.69149       11.02448
C        -14.42383      -12.10280       10.64594
N        -15.54700      -12.02393       10.38637
C        -10.78931      -11.26182       11.64905
C        -10.39780      -10.00507       12.11099
C         -9.14322       -9.71114       12.63786
C         -8.18994      -10.74857       12.68182
C         -8.55578      -12.01346       12.19896
C         -9.84994      -12.28937       11.67873
S         -7.24018      -13.12827       12.32904
C         -6.22793      -11.95706       13.00222
C         -6.83059      -10.73663       13.14731
Br        -4.45281      -12.29451       13.49714
C        -11.46031       -9.01690       11.91833
O        -11.36997       -7.84844       12.23403
C        -12.59037       -9.73803       11.23620
C        -13.66053       -9.08904       10.74877
C        -13.91800       -7.65841       10.83405
C        -15.12933       -7.08194       10.84003
C        -15.36179       -5.65737       10.90024
C        -16.63203       -5.31524       10.63573
C        -17.48490       -6.45234       10.33385
S        -16.64224       -7.94426       10.75532
C        -18.67338       -6.42669        9.70187
C        -19.34303       -5.26312        9.15155
C        -20.31542       -5.56505        8.27406
C        -20.50666       -6.98984        8.09468
S        -19.56129       -7.88035        9.26404
C        -21.21772       -7.55822        7.10535
C        -21.26320       -8.99211        6.84574
C        -21.45228       -9.57243        5.64941
C        -21.19014      -10.97573        5.39770
C        -20.89204      -11.21331        4.11103
C        -20.94204      -10.02451        3.26845
S        -21.77757       -8.74429        4.14796
C        -20.29913       -9.83114        2.09800
C        -19.32997      -10.72765        1.49359
C        -18.43076      -10.08380        0.72653
C        -18.65262       -8.64631        0.67025
S        -20.29776       -8.32306        1.18021
C        -17.69469       -7.73923        0.38144
C        -17.74518       -6.25161        0.40725
C        -17.01178       -5.55555       -0.58269
C        -17.12842       -4.16169       -0.75973
C        -18.00373       -3.42383        0.02813
C        -18.66908       -4.08466        1.04771
C        -18.46135       -5.45099        1.30239
N        -19.03970       -5.74249        2.55709
C        -18.55897       -6.73774        3.47732
C        -19.75342       -4.65315        3.06931
O        -20.31734       -4.57529        4.15218
C        -19.57168       -3.49602        2.10275
C        -20.92433       -2.91450        1.69619
C        -21.60611       -3.73633        0.59000
O        -22.05114       -4.86581        0.71134
N        -21.60798       -2.95238       -0.56767
C        -22.14116       -3.37565       -1.83230
C        -21.09181       -1.68004       -0.32166
C        -20.87263       -0.64418       -1.20927
C        -20.29197        0.53301       -0.71588
C        -19.98971        0.64374        0.66072
C        -20.22572       -0.40840        1.54371
C        -20.74049       -1.57832        1.02159
C        -19.91659        1.58921       -1.66521
C        -19.87988        2.89000       -1.33941
C        -19.45103        3.92231       -2.24363
C        -19.97751        4.24752       -3.43065
C        -21.10951        3.75372       -4.23263
C        -22.30453        3.30008       -3.77649
C        -23.32756        2.80398       -4.63534
N        -24.14786        2.36442       -5.33009
C        -22.67947        3.36189       -2.39900
N        -23.04132        3.44701       -1.29974
C        -20.77953        4.08265       -5.65642
C        -19.65900        4.92187       -5.66583
C        -19.13940        5.11922       -4.30818
O        -18.18845        5.80606       -3.99838
C        -19.10807        5.48478       -6.80985
C        -19.74546        5.21638       -8.03884
C        -20.86299        4.36790       -8.04710
C        -21.38272        3.77144       -6.86902
S        -21.49169        4.18752       -9.64717
C        -20.32742        5.22582      -10.29047
C        -19.44186        5.69492       -9.35837
Br       -20.26000        5.69321      -12.10270
H         -8.91087       -8.70888       12.98855
H        -10.04837      -13.28927       11.31270
H         -6.33647       -9.86378       13.55743
H        -14.43714       -9.62506       10.21211
H        -13.04530       -7.00901       10.85891
H        -14.57565       -4.94705       11.11739
H        -16.98102       -4.29340       10.61356
H        -19.04251       -4.24841        9.37084
H        -20.86947       -4.82855        7.70634
H        -21.69813       -6.91332        6.37216
H        -20.99282       -9.62994        7.68511
H        -21.14643      -11.72366        6.18247
H        -20.61232      -12.18882        3.74081
H        -19.29408      -11.78639        1.70471
H        -17.59201      -10.56615        0.24533
H        -16.72229       -8.12277        0.07278
H        -16.33356       -6.08884       -1.24792
H        -16.54410       -3.65698       -1.52712
H        -18.11539       -2.35454       -0.12454
H        -18.13329       -7.61745        3.00404
H        -19.37228       -7.03264        4.14276
H        -17.78354       -6.27414        4.09349
H        -18.97862       -2.75564        2.65637
H        -21.62061       -2.80522        2.53542
H        -22.42254       -4.43125       -1.79759
H        -21.38793       -3.23287       -2.61252
H        -23.02850       -2.77717       -2.05779
H        -21.11279       -0.75548       -2.26025
H        -19.53228        1.54737        1.05760
H        -19.97154       -0.31631        2.59484
H        -19.63428        1.25143       -2.66036
H        -20.13692        3.23230       -0.33889
H        -18.55718        4.44602       -1.89705
H        -18.23231        6.12526       -6.74729
H        -22.24329        3.11969       -6.95883
H        -18.62275        6.36684       -9.58573
