117

C         -6.63379       -2.19990        3.17025
C         -6.00740       -3.32746        2.71442
C         -5.79638       -4.46920        3.53671
N         -5.61082       -5.40680        4.20334
C         -5.56508       -3.46725        1.37084
N         -5.19550       -3.58440        0.27851
C         -7.24158       -2.00033        4.52274
C         -8.07961       -0.88237        4.47462
C         -8.80467       -0.39808        5.56025
C         -8.68607       -1.08720        6.78820
C         -7.84657       -2.20943        6.84847
C         -7.10419       -2.67265        5.73149
S         -7.86138       -2.91375        8.42645
C         -8.96012       -1.76766        8.99683
C         -9.30324       -0.82938        8.06038
Br        -9.64475       -1.78781       10.74000
C         -8.05109       -0.27216        3.13942
O         -8.79290        0.61350        2.77355
C         -6.96827       -0.99456        2.38138
C         -6.34703       -0.47701        1.30720
C         -6.64545        0.82994        0.71989
C         -6.01401        1.95838        1.24828
C         -6.40396        3.21146        0.79525
C         -7.39733        3.34987       -0.19280
C         -7.97272        2.22982       -0.76992
C         -7.59505        0.96453       -0.30733
C         -7.71840        4.75072       -0.34903
C         -6.97358        5.50876        0.57549
C         -6.03982        4.58363        1.37802
C         -6.39071        4.60986        2.88971
C         -7.81872        4.14256        3.21374
C         -4.57180        4.96711        1.04300
C         -3.49074        4.12931        1.71395
C         -7.16655        6.88195        0.69762
C         -8.13428        7.50642       -0.10752
C         -8.80129        6.75108       -1.09456
C         -8.61843        5.36705       -1.19718
C         -8.51685        8.91817        0.07708
C         -8.46909        9.53234        1.26976
N         -8.91114       10.79853        1.56925
C         -8.88384       11.43726        2.77189
S        -10.16035       12.56140        3.09056
C         -9.59710       12.84332        4.65237
N        -10.32181       13.72667        5.50065
O        -10.72891       13.25314        6.56810
O        -10.44646       14.89609        5.11754
C         -8.45052       12.16162        4.96473
C         -7.99030       11.39951        3.84227
C         -6.76148       10.65886        3.89825
C         -5.54358       11.15971        3.59932
C         -4.31475       10.40393        3.68445
S         -4.33390        8.72712        4.15489
C         -2.65551        8.44734        3.87652
C         -2.07963        9.63205        3.45965
C         -2.99548       10.76976        3.42824
C         -2.56877       12.07918        3.10131
C         -1.16615       12.15433        2.84341
N         -0.58877       13.47224        2.64920
O         -1.09240       14.18638        1.77668
O          0.34205       13.78224        3.40205
C         -0.30324       11.02825        2.83336
N          1.10627       11.14489        2.50556
O          1.38306       11.56188        1.37758
O          1.90330       10.69330        3.34011
C         -0.73292        9.71678        3.09740
C         -2.17876        7.10369        4.06005
C         -0.96483        6.71034        4.48214
C          0.24465        7.38987        4.96410
C          0.28117        8.35086        5.91844
C          1.46401        8.88792        6.48979
N          2.38028        9.35765        7.02536
C         -0.90958        8.77604        6.56104
N         -1.87750        9.09203        7.11611
C          1.39951        6.55892        4.54773
C          0.91934        5.27014        4.29351
C         -0.56245        5.26962        4.30907
O         -1.28911        4.30804        4.18235
C          1.75107        4.18112        4.05595
C          3.14716        4.42316        3.97809
C          3.61181        5.74042        4.13890
C          2.75489        6.82739        4.43717
S          5.32402        5.83199        3.94264
C          5.44587        4.17351        3.66697
C          4.24512        3.51709        3.74710
Br         7.07499        3.33289        3.28048
H         -9.43462        0.48173        5.45993
H         -6.45662       -3.53106        5.86550
H         -9.98051       -0.00519        8.25144
H         -5.48588       -0.94563        0.84266
H         -5.29329        1.85755        2.05349
H         -8.74054        2.32393       -1.52954
H         -8.07537        0.08353       -0.72426
H         -6.25305        5.61890        3.29609
H         -5.70786        3.95341        3.44199
H         -8.57353        4.79062        2.75904
H         -7.98129        4.13233        4.29441
H         -8.00414        3.12364        2.86271
H         -4.38992        6.01768        1.30622
H         -4.41278        4.90156       -0.04357
H         -3.55839        4.19371        2.80161
H         -2.49830        4.48399        1.41638
H         -3.54471        3.07926        1.42087
H         -6.59584        7.45041        1.42554
H         -9.50389        7.22887       -1.77412
H         -9.19002        4.78757       -1.91325
H         -8.91690        9.43422       -0.79230
H         -8.11387        8.99566        2.14386
H         -9.59879       11.13917        0.89771
H         -7.95070       12.22338        5.92500
H         -6.87618        9.64209        4.26303
H         -5.48298       12.18773        3.24676
H         -3.20807       12.95513        3.07904
H         -0.04992        8.88597        3.01096
H         -2.89188        6.32241        3.79058
H          1.33721        3.18294        3.93667
H          3.17601        7.81828        4.58036
H          4.13835        2.44582        3.62038
