97

C         -6.57190       -0.59851       -1.02606
C         -5.48590       -0.60605       -1.83454
C         -5.15405       -1.73024       -2.65074
N         -4.91117       -2.63993       -3.32343
C         -4.68587        0.55784       -2.02263
N         -4.04030        1.50763       -2.17318
C         -7.55800       -1.70449       -0.87910
C         -8.79226       -1.12955       -0.56495
C         -9.95641       -1.86209       -0.38587
C         -9.87770       -3.26672       -0.53163
C         -8.62993       -3.85256       -0.80504
C         -7.44573       -3.08824       -0.96357
S         -8.76758       -5.57241       -0.92801
C        -10.43949       -5.51953       -0.70195
C        -10.91558       -4.25867       -0.46281
Br       -11.53671       -7.03590       -0.78384
C         -8.65690        0.33538       -0.44375
O         -9.55541        1.14023       -0.56095
C         -7.17997        0.57769       -0.36679
C         -6.58991        1.51487        0.39804
C         -7.21506        2.43197        1.30826
C         -7.65605        3.70052        0.98010
C         -7.71303        4.43021       -0.30833
N         -8.07820        4.31226        2.13558
C         -7.88190        3.48987        3.21244
C         -8.20441        3.95039        4.59505
C         -7.35717        2.30016        2.72665
C         -7.01140        1.23704        3.61283
C         -6.55023        0.01764        3.30722
C         -6.20088       -0.93015        4.29766
S         -5.02441       -2.14958        3.99708
C         -5.20639       -2.87775        5.55737
C         -6.12999       -2.14663        6.25461
C         -6.70089       -1.07748        5.55834
S         -7.96445       -0.24849        6.57074
C         -7.51503       -1.47063        7.78217
N         -6.58896       -2.39845        7.52152
C         -4.45774       -4.04613        5.86433
C         -4.14231       -4.35810        7.12843
C         -3.42021       -5.56120        7.48676
C         -3.05675       -5.91681        8.72802
C         -2.35335       -7.13581        9.04134
C         -2.06313       -7.26923       10.34278
C         -2.52293       -6.16247       11.16779
S         -3.35546       -4.97811       10.16898
C         -2.36358       -6.03712       12.49957
C         -1.68880       -6.98090       13.36983
C         -1.74382       -6.66360       14.66758
C         -2.47492       -5.44287       14.93369
S         -2.97740       -4.67839       13.45193
C         -2.75058       -5.00117       16.16988
C         -3.57206       -3.85794       16.51401
C         -3.24320       -2.74362       17.18116
C         -2.01571       -2.17296       17.75451
C         -1.01786       -2.80943       18.42358
C          0.05696       -2.12371       19.04576
N          0.94214       -1.57437       19.55453
C         -1.03866       -4.20622       18.70215
N         -1.01526       -5.33534       18.98432
C         -2.19715       -0.68648       17.73894
C         -3.54686       -0.41419       17.51799
C         -4.27803       -1.65295       17.21238
O         -5.47052       -1.74252       17.00515
C         -4.09792        0.86456       17.53335
C         -3.22249        1.95303       17.74939
C         -1.85253        1.69344       17.90504
C         -1.31726        0.37819       17.89234
S         -0.96009        3.15973       18.10840
C         -2.35913        4.09879       18.01819
C         -3.49750        3.36213       17.82904
Br        -2.34886        5.96690       18.15666
H        -10.89318       -1.36444       -0.15247
H         -6.50587       -3.59579       -1.15842
H        -11.95909       -4.03072       -0.28110
H         -5.50502        1.51004        0.48184
H         -8.30565        3.87064       -1.03616
H         -6.70526        4.58236       -0.70542
H         -8.17614        5.41533       -0.18178
H         -8.44354        5.25392        2.19168
H         -8.53685        4.99371        4.60690
H         -7.32324        3.87970        5.24255
H         -9.00106        3.33837        5.03041
H         -7.12702        1.48925        4.66060
H         -6.38417       -0.26915        2.27797
H         -8.02936       -1.43406        8.73343
H         -4.14560       -4.68804        5.04528
H         -4.44094       -3.69363        7.93749
H         -3.16985       -6.22579        6.66182
H         -2.09305       -7.86716        8.28747
H         -1.54081       -8.12770       10.73755
H         -1.19178       -7.87104       13.00589
H         -1.30415       -7.26187       15.45286
H         -2.45464       -5.63071       17.00062
H         -4.58192       -3.93147       16.10315
H         -5.16230        1.01328       17.37378
H         -0.24480        0.25391       17.99882
H         -4.48811        3.79329       17.74417
