88

C         -1.27330       -2.29665       -0.33488
C         -0.42349       -2.58876       -1.35385
C          0.48262       -3.68399       -1.30391
N          1.21933       -4.56909       -1.25438
C         -0.31808       -1.78434       -2.52516
N         -0.23388       -1.13997       -3.48636
C         -1.36519       -3.00085        0.98835
C         -2.03429       -2.16256        1.88141
C         -2.32242       -2.47636        3.20345
C         -1.88816       -3.72741        3.68321
C         -1.21210       -4.58766        2.80289
C         -0.94866       -4.24718        1.44648
S         -0.77596       -6.05941        3.60083
C         -1.46776       -5.55556        5.05636
C         -2.02488       -4.30758        4.98979
Br        -1.47713       -6.60267        6.60978
C         -2.38703       -0.89975        1.23240
O         -2.68251        0.12638        1.81151
C         -2.16934       -1.11535       -0.23269
C         -2.79222       -0.41620       -1.19630
C         -3.78172        0.58204       -0.97497
O         -3.88946        1.68998       -1.81968
C         -4.80531        0.71808       -0.07252
C         -5.43606        0.07478        1.04660
O         -5.22574       -1.03401        1.51044
N         -6.42754        0.95273        1.42999
C         -6.56062        2.04516        0.59825
O         -7.42267        2.90251        0.62487
C         -5.49619        1.90521       -0.34367
C         -4.93712        2.52190       -1.42807
C         -5.29232        3.73572       -2.07919
C         -4.58531        4.18828       -3.12715
C         -4.90374        5.41838       -3.82642
C         -4.24130        5.94836       -4.87769
C         -3.02969        5.33801       -5.54072
C         -4.74344        7.21564       -5.54086
N         -3.72059        8.24173       -5.46423
C         -3.10013        8.88369       -6.50963
C         -3.25141        8.69223       -7.82404
C         -2.55732        9.47227       -8.82482
C         -1.79991        8.96885       -9.80854
C         -1.29776        9.73394      -10.92584
C         -0.99048        8.96520      -11.98342
C         -1.21237        7.54801      -11.73581
S         -1.39262        7.28517       -9.99722
C         -1.49553        6.59221      -12.64065
C         -1.77540        6.79907      -14.05048
C         -2.57465        5.84587      -14.56181
C         -2.92477        4.81184      -13.60132
S         -1.89817        4.93169      -12.19932
C         -3.94372        3.94702      -13.73720
C         -4.29646        2.97259      -12.76732
S         -3.62891        1.37110      -12.73155
C         -4.60422        0.84061      -11.36587
C         -5.40044        1.89005      -11.05056
C         -5.22662        3.03536      -11.79862
N         -6.06007        4.03425      -11.39410
N         -6.85218        3.60340      -10.35569
C         -6.43488        2.31216      -10.14821
C         -4.53563       -0.46299      -10.80134
C         -3.42555       -1.21127      -10.82487
H         -2.86992       -1.77950        3.83136
H         -0.43512       -4.96916        0.82131
H         -2.51214       -3.81527        5.82338
H         -2.59173       -0.59234       -2.24608
H         -7.07111        0.74585        2.17327
H         -6.14807        4.28735       -1.70001
H         -3.73396        3.61142       -3.47777
H         -5.78067        5.94728       -3.45241
H         -2.79117        4.33414       -5.18342
H         -2.14589        5.96080       -5.36932
H         -3.19093        5.25340       -6.62084
H         -5.64655        7.59514       -5.04942
H         -5.02957        6.98568       -6.57211
H         -3.70078        8.75070       -4.58427
H         -2.38523        9.62678       -6.15770
H         -3.94580        7.94644       -8.20208
H         -2.78600       10.53499       -8.81310
H         -1.24304       10.81320      -10.91400
H         -0.64573        9.35763      -12.92919
H         -1.47056        7.68105      -14.59771
H         -2.96587        5.86576      -15.57013
H         -4.55392        3.98025      -14.63439
H         -6.13813        4.98027      -11.74871
H         -6.90194        1.74266       -9.35461
H         -5.41763       -0.84672      -10.29286
H         -2.49855       -0.87323      -11.27691
H         -3.41164       -2.19243      -10.36121
