101

C        -18.60189       -0.77818       -0.26296
C        -19.13701       -1.32121       -1.38791
C        -19.81092       -2.57812       -1.39291
N        -20.34850       -3.60747       -1.41858
C        -19.07793       -0.70307       -2.66997
N        -19.04216       -0.21899       -3.72010
C        -18.67269       -1.35309        1.12698
C        -18.05046       -0.46739        2.00706
C        -17.93366       -0.65666        3.38045
C        -18.50112       -1.82089        3.92966
C        -19.13094       -2.72895        3.06626
C        -19.21822       -2.51761        1.66182
S        -19.76089       -4.07730        3.94777
C        -19.22696       -3.44797        5.42120
C        -18.56120       -2.25879        5.29649
Br       -19.52110       -4.29156        7.06749
C        -17.54267        0.70670        1.30640
O        -17.01790        1.65106        1.86516
C        -17.83578        0.49471       -0.15012
C        -17.32353        1.31123       -1.08586
C        -16.39859        2.39890       -0.83186
C        -15.19483        2.38745       -1.41974
C        -14.18738        3.35296       -1.15877
O        -14.29337        4.42374       -0.29128
C        -13.11660        5.15959       -0.29596
C        -12.24667        4.49956       -1.15763
C        -12.91671        3.40207       -1.69872
O        -12.42279        2.51759       -2.58338
O        -10.96646        4.83116       -1.43183
C        -12.97003        6.35211        0.46841
C        -12.30318        7.40634       -0.02199
C        -12.16235        8.67870        0.65318
C        -11.82864        9.77225       -0.04555
N        -11.68321       11.07074        0.38782
C        -11.39786       12.18256       -0.36230
S        -11.21306       12.10339       -2.08824
C        -10.98850       13.76076       -2.21846
N        -10.82440       14.33395       -3.51415
O        -11.56708       15.28412       -3.79079
O         -9.94317       13.85746       -4.24060
C        -11.02713       14.41838       -1.01687
C        -11.23618       13.50342        0.07265
C        -11.30582       13.97117        1.43527
C        -10.85352       13.31248        2.51377
C        -10.96824       13.78499        3.88598
C        -10.60609       13.08484        4.97506
C        -10.76395       13.51797        6.34624
C        -10.45938       12.57577        7.25302
C        -10.05033       11.31254        6.66751
S         -9.91534       11.48663        4.91749
C         -9.87189       10.13367        7.29292
C        -10.02945        9.83456        8.70295
C        -10.06942        8.51798        8.97288
C         -9.94989        7.68115        7.79435
S         -9.51176        8.65464        6.41973
C        -10.22713        6.36641        7.74940
C        -10.26223        5.49585        6.58368
C         -9.45953        5.57602        5.49272
C         -9.86948        4.54581        4.57895
C         -9.45019        4.27913        3.33023
C        -10.06396        3.13808        2.68882
C         -9.85620        2.59893        1.47405
C        -10.68045        1.38653        1.31901
C        -11.40144        1.20485        2.45009
C        -11.07056        2.28866        3.34325
C        -11.50677        2.57566        4.58449
C        -10.91647        3.74212        5.21497
C        -11.13858        4.31436        6.41044
C        -10.61086        0.46632        0.20789
C        -11.54890       -0.42508       -0.13233
H        -17.43184        0.08211        4.00017
H        -19.71938       -3.27152        1.06791
H        -18.14313       -1.70663        6.12824
H        -17.47004        1.13977       -2.14664
H        -16.67370        3.16853       -0.11295
H        -14.92678        1.58439       -2.10169
H        -11.50301        2.77354       -2.77673
H        -10.66559        5.52204       -0.81713
H        -13.49658        6.40620        1.41658
H        -11.87284        7.35782       -1.02204
H        -12.35002        8.72933        1.72183
H        -11.67093        9.65706       -1.11581
H        -11.88088       11.18817        1.37915
H        -10.89581       15.48953       -0.91612
H        -11.73647       14.96132        1.57709
H        -10.36388       12.35264        2.36743
H        -11.41195       14.76922        4.02174
H        -11.11877       14.50644        6.60482
H        -10.54583       12.72598        8.32018
H        -10.13934       10.59916        9.45854
H        -10.21998        8.10901        9.96261
H        -10.55731        5.88106        8.66634
H         -8.66559        6.27386        5.28851
H         -8.68941        4.85871        2.82515
H         -9.17755        2.96060        0.71908
H        -12.05648        0.38441        2.68988
H        -12.24152        1.97758        5.10537
H        -11.85061        3.98720        7.15193
H         -9.70260        0.52154       -0.39064
H        -12.48516       -0.51432        0.40781
H        -11.40002       -1.08067       -0.98390
