129

C          2.68230        4.95355       -2.25237
C          3.73388        4.75220       -1.42569
C          4.91598        4.07786       -1.84838
N          5.87208        3.52192       -2.19366
C          3.76150        5.25124       -0.09215
N          3.78461        5.65305        0.99957
C          2.58207        4.60795       -3.70152
C          1.54020        5.35452       -4.25838
C          1.11563        5.26244       -5.57739
C          1.77798        4.33857       -6.40917
C          2.83123        3.58097       -5.87106
C          3.24983        3.69923       -4.51605
S          3.49238        2.51921       -7.06653
C          2.39945        3.04869       -8.23977
C          1.53193        4.00279       -7.78344
Br         2.37250        2.39229       -9.99402
C          0.88746        6.17949       -3.24048
O          0.08797        7.06010       -3.47056
C          1.44770        5.70964       -1.93145
C          0.75501        5.78054       -0.78129
C         -0.60145        6.32904       -0.69055
C         -0.80342        7.68820       -0.43243
C         -2.10728        8.17045       -0.44429
C         -3.20655        7.31288       -0.66550
C         -3.00879        5.96881       -0.92962
C         -1.69929        5.48087       -0.95067
C         -4.43154        8.07849       -0.57611
C         -4.12187        9.44234       -0.39248
C         -2.59274        9.62537       -0.37346
C         -2.12708       10.35634        0.91291
C         -2.52962        9.71163        2.23615
C         -2.04436       10.39572       -1.61354
C         -2.33003        9.78654       -2.98827
C         -5.12920       10.36769       -0.10838
C         -6.45642        9.92114        0.03811
C         -6.75316        8.56582       -0.23385
C         -5.74349        7.64276       -0.53830
C         -7.48621       10.86338        0.53706
C         -8.59131       10.51497        1.22753
C         -9.54040       11.47697        1.80944
C         -9.10103       12.60221        2.53937
N         -7.89586       12.92287        3.14953
C         -7.13091       11.95715        3.94242
C         -7.00214       12.33776        5.42150
C         -7.82501       14.29343        3.35356
C         -9.16360       14.69568        3.43419
C         -9.97224       13.61542        2.95043
C        -11.35919       13.42592        2.78515
C        -11.82561       12.25333        2.18210
C        -10.92927       11.31051        1.67609
C         -9.45449       15.99130        3.90208
C         -8.40603       16.85088        4.23716
C         -7.07848       16.45384        4.07720
C         -6.74666       15.16505        3.63192
C         -5.36684       14.74678        3.33241
C         -4.26405       15.17377        3.97646
C         -2.90309       14.84381        3.54539
C         -1.96715       14.26982        4.34868
C         -0.56515       13.90056        3.86084
C         -0.46759       13.84413        2.36563
C          0.48636       13.17700        1.62530
S          0.24513       13.36189       -0.05815
C         -1.15371       14.31346        0.19009
C         -1.42709       14.49850        1.52929
C         -2.57445       15.26634        2.11018
C         -2.15720       14.01524        5.76826
C         -2.18115       12.79150        6.35601
C         -2.29347       13.01298        7.78238
C         -2.34479       12.15396        8.82064
C         -2.44215       12.74730       10.14705
C         -2.49882       12.19796       11.37923
C         -2.58409       13.26488       12.39793
C         -2.55148       14.46466       11.77712
C         -2.47311       14.20274       10.36580
C         -2.41631       15.05945        9.33257
C         -2.33045       14.46237        8.02008
C         -2.25005       15.04404        6.81589
C         -2.61464       13.16700       13.83588
C         -3.39875       12.33829       14.53399
H          0.27785        5.85658       -5.93279
H          4.04774        3.05730       -4.15894
H          0.75177        4.45246       -8.38685
H          1.09968        5.32527        0.14192
H          0.03627        8.36073       -0.28939
H         -3.84180        5.31076       -1.15047
H         -1.53632        4.43450       -1.19896
H         -2.52379       11.38002        0.90584
H         -1.03411       10.44989        0.90894
H         -3.60936        9.55614        2.30969
H         -2.23713       10.36418        3.06584
H         -2.02950        8.74943        2.37774
H         -0.95120       10.47137       -1.52252
H         -2.42337       11.42483       -1.61304
H         -2.07160        8.72559       -3.04385
H         -1.72758       10.29503       -3.74957
H         -3.38205        9.90003       -3.26214
H         -4.87105       11.40570        0.08562
H         -7.77130        8.20371       -0.16982
H         -5.99226        6.59618       -0.67359
H         -7.26902       11.91694        0.36836
H         -8.85485        9.47354        1.38586
H         -6.15746       11.83232        3.46378
H         -7.66220       10.99909        3.90320
H         -6.53271       13.31359        5.57091
H         -6.39079       11.60479        5.95465
H         -7.98617       12.37865        5.90374
H        -12.06094       14.17987        3.12942
H        -12.89698       12.09363        2.08247
H        -11.32698       10.43508        1.16653
H        -10.48420       16.32441        3.98936
H         -8.62839       17.85088        4.59992
H         -6.29389       17.17047        4.30137
H         -5.26953       14.06666        2.48812
H         -4.34697       15.82003        4.84673
H         -0.26806       12.92210        4.25866
H          0.15272       14.64185        4.23679
H          1.31495       12.58448        1.98872
H         -1.71002       14.68762       -0.65866
H         -3.43949       15.15637        1.44761
H         -2.31076       16.33369        2.12118
H         -2.09940       11.83150        5.87306
H         -2.31354       11.07891        8.70082
H         -2.46686       11.14639       11.61744
H         -2.58787       15.44011       12.23201
H         -2.42420       16.13306        9.45411
H         -2.22712       16.10350        6.61482
H         -1.97772       13.86614       14.37561
H         -4.09011       11.65243       14.05688
H         -3.38646       12.36557       15.62015
