93

C         -5.82026       -2.47497       -0.11702
C         -6.46507       -3.43252       -0.82908
C         -6.14265       -4.81997       -0.73920
N         -5.89262       -5.94664       -0.66728
C         -7.57355       -3.15548       -1.68200
N         -8.47702       -2.94501       -2.37812
C         -4.74551       -2.71101        0.90240
C         -4.58804       -1.54604        1.65523
C         -3.70944       -1.42288        2.72796
C         -2.93360       -2.54837        3.08152
C         -3.05700       -3.71485        2.31258
C         -3.94491       -3.81032        1.20781
S         -2.01066       -4.95926        2.90363
C         -1.44214       -3.97805        4.15406
C         -1.98928       -2.72321        4.15087
Br        -0.18554       -4.55040        5.42052
C         -5.46278       -0.47372        1.15981
O         -5.55861        0.62535        1.66432
C         -6.16258       -1.03007       -0.04855
C         -6.87376       -0.25562       -0.88441
C         -7.17134        1.15965       -0.68866
N         -8.29468        1.44465       -0.01417
C         -8.59134        2.75078        0.09302
C         -7.82784        3.75501       -0.45956
C         -6.71604        3.34806       -1.16914
N         -6.38371        2.04642       -1.31361
C         -5.82897        4.33829       -1.80943
C         -5.14796        4.03627       -2.92338
N         -4.28299        4.80244       -3.67629
C         -3.61501        4.40446       -4.80472
S         -3.29330        2.72708       -5.13173
C         -2.42482        3.08916       -6.52079
N         -1.82120        2.02705       -7.25108
O         -0.59098        2.07587       -7.37335
O         -2.57338        1.16520       -7.72237
C         -2.35734        4.42715       -6.79974
C         -3.07267        5.19684       -5.81734
C         -3.16927        6.62342       -5.94188
C         -4.17731        7.41461       -5.53780
C         -4.19288        8.84931       -5.76709
C         -4.14739        9.45793       -6.96238
C         -4.18122       10.88653       -7.17306
C         -4.34857       11.23383       -8.45938
C         -4.51325       10.09315       -9.34416
S         -4.11417        8.61188       -8.48618
C         -5.03868       10.09745      -10.58192
C         -5.51792       11.24757      -11.32228
C         -6.34943       10.92482      -12.32633
C         -6.58999        9.50252      -12.42439
S         -5.44568        8.61988      -11.45307
C         -7.61228        8.94137      -13.08902
C         -8.00903        7.54600      -13.03000
C         -8.41100        6.85244      -11.95056
C         -8.60232        7.17646      -10.52489
C         -9.12927        8.31461      -10.00968
C         -9.36765        8.50111       -8.61949
N         -9.56942        8.66981       -7.48717
C         -9.61988        9.37295      -10.83227
N        -10.06019       10.23051      -11.47665
C         -8.41920        5.89665       -9.77128
C         -8.47876        4.84533      -10.69125
C         -8.52156        5.36233      -12.07064
O         -8.59695        4.69867      -13.08408
C         -8.46817        3.50172      -10.33388
C         -8.37572        3.18533       -8.95907
C         -8.24779        4.23405       -8.03396
C         -8.24902        5.60007       -8.42212
S         -8.10838        3.62333       -6.42102
C         -8.26203        2.02489       -6.94276
C         -8.38832        1.90645       -8.30111
Br        -8.25466        0.55985       -5.77378
H         -3.63654       -0.48901        3.27879
H         -3.97057       -4.74054        0.65224
H         -1.74462       -1.95567        4.87543
H         -7.32141       -0.61693       -1.79968
H         -9.49449        2.97300        0.65422
H         -8.10962        4.79322       -0.35285
H         -5.75515        5.31261       -1.34164
H         -5.30348        3.04649       -3.34879
H         -4.15863        5.75634       -3.34656
H         -1.84827        4.83577       -7.66606
H         -2.35470        7.09377       -6.49496
H         -5.04692        7.01203       -5.02528
H         -4.30127        9.44870       -4.86610
H         -4.10048       11.59688       -6.36153
H         -4.42194       12.25940       -8.79265
H         -5.27301       12.26651      -11.05860
H         -6.85672       11.65056      -12.94749
H         -8.25967        9.56851      -13.70132
H         -7.92603        7.02896      -13.98780
H         -8.53741        2.72591      -11.09158
H         -8.13002        6.36118       -7.65852
H         -8.49127        0.95942       -8.81808
