94

C         -3.07567       -0.43821        3.14828
C         -3.13566       -1.62909        3.79379
C         -2.02456       -2.51271        3.90523
N         -1.13839       -3.25038        4.05455
C         -4.31187       -2.12865        4.43429
N         -5.23845       -2.59231        4.94714
C         -1.93133        0.05083        2.30701
C         -2.23978        1.32540        1.83174
C         -1.42544        2.08175        0.99346
C         -0.21097        1.50924        0.57064
C          0.10213        0.21184        1.00103
C         -0.74104       -0.53049        1.87497
S          1.59949       -0.31663        0.31657
C          1.83546        1.15700       -0.47309
C          0.81847        2.05009       -0.27218
Br         3.34242        1.53325       -1.52013
C         -3.55835        1.75533        2.28689
O         -4.04523        2.83333        2.00910
C         -4.11651        0.63182        3.11504
C         -5.34441        0.68800        3.66153
C         -6.31970        1.75722        3.50060
C         -7.65207        1.61008        3.55460
C         -8.59455        2.64909        3.20705
C         -9.82921        2.18358        2.95866
C         -9.92815        0.73832        3.07953
S         -8.47828        0.10969        3.86122
C        -10.86680       -0.05237        2.52804
C        -12.00965        0.36242        1.73346
C        -12.46129       -0.60331        0.91478
C        -11.67144       -1.81416        0.99847
S        -10.71785       -1.80626        2.45898
C        -11.58855       -2.74542        0.03603
C        -10.60658       -3.80731       -0.02823
C         -9.28133       -3.60346       -0.09271
C        -11.06526       -5.25640       -0.04013
C        -11.45872       -6.49943       -0.05034
C        -11.91740       -7.94852       -0.06224
C        -12.94159       -8.37446       -0.81573
C        -13.36802       -9.76300       -0.80207
C        -12.59570      -10.81665       -1.10996
C        -12.94867      -12.19974       -0.88545
C        -11.87287      -13.00328       -0.82914
C        -10.61920      -12.28218       -0.99923
S        -10.95383      -10.70566       -1.69952
C         -9.41626      -12.63194       -0.50770
C         -9.12891      -13.81042        0.28552
C         -8.03468      -13.67656        1.05107
C         -7.36912      -12.39878        0.88451
S         -8.01147      -11.56435       -0.50668
C         -6.44613      -11.90781        1.72902
C         -5.80092      -10.60445        1.64325
C         -4.90017      -10.07057        2.48232
C         -4.23637      -10.53611        3.70276
C         -3.60874      -11.72654        3.85625
C         -2.89017      -12.07093        5.02785
N         -2.31390      -12.35909        5.99651
C         -3.50561      -12.66018        2.78201
N         -3.40053      -13.40938        1.90353
C         -4.01944       -9.32999        4.55643
C         -4.18948       -8.20370        3.74182
C         -4.60653       -8.60408        2.38495
O         -4.66725       -7.88921        1.40781
C         -3.98644       -6.89967        4.17205
C         -3.53968       -6.71222        5.49941
C         -3.37916       -7.83445        6.32764
C         -3.64949       -9.15532        5.88547
S         -2.79928       -7.37247        7.89213
C         -2.74435       -5.74219        7.46235
C         -3.18733       -5.50579        6.19053
Br        -2.13623       -4.38683        8.60352
H         -1.73454        3.07136        0.66694
H         -0.43012       -1.53188        2.15115
H          0.79321        3.04638       -0.69832
H         -5.72139       -0.13403        4.25767
H         -5.94036        2.73984        3.23490
H         -8.29897        3.68164        3.08019
H        -10.63893        2.80844        2.61116
H        -12.41586        1.36331        1.75847
H        -13.26270       -0.47207        0.20175
H        -12.23056       -2.67455       -0.83820
H         -8.84543       -2.61118       -0.08226
H         -8.59226       -4.44302       -0.13914
H        -11.35908       -8.61203        0.59219
H        -13.50673       -7.68766       -1.43867
H        -14.37872       -9.92171       -0.43209
H        -13.96313      -12.52654       -0.70612
H        -11.92458      -14.05839       -0.60449
H         -9.76974      -14.68026        0.30522
H         -7.69509      -14.42827        1.74981
H         -6.20697      -12.51772        2.59491
H         -6.15450       -9.96076        0.83428
H         -4.14214       -6.06157        3.49883
H         -3.52419       -9.97827        6.58065
H         -3.23495       -4.52230        5.74958
