104

C         -3.75060       -0.26910        2.60162
C         -2.54638       -0.88975        2.60425
C         -2.19922       -1.92784        3.51942
N         -1.91564       -2.78422        4.24996
C         -1.51247       -0.58806        1.67324
N         -0.65757       -0.32456        0.93751
C         -4.83702       -0.51072        3.60188
C         -6.01204        0.08110        3.14443
C         -7.21103        0.07751        3.85316
C         -7.20916       -0.48117        5.15154
C         -6.01922       -1.03770        5.64064
C         -4.82744       -1.07869        4.87480
S         -6.21296       -1.60081        7.26347
C         -7.82107       -1.09190        7.31421
C         -8.25194       -0.53616        6.13930
Br        -8.90260       -1.25502        8.83570
C         -5.76958        0.82883        1.90143
O         -6.62094        1.45164        1.30346
C         -4.29628        0.69189        1.59827
C         -3.66690        1.39182        0.63346
C         -4.29711        2.34151       -0.22871
S         -4.33420        3.99861        0.24757
C         -5.15269        4.53394       -1.18899
C         -5.41214        3.44267       -2.00213
C         -4.84520        2.20755       -1.48933
C         -4.87202        0.98713       -2.18447
C         -5.58848        1.06139       -3.40129
S         -5.81027       -0.43711       -4.37241
C         -6.17142        2.27900       -3.88245
O         -6.88673        2.28882       -5.06108
C         -6.07901        3.52181       -3.23341
C         -5.35557        5.94339       -1.32802
C         -6.41735        6.48932       -1.93842
C         -6.54319        7.92105       -2.13060
C         -7.64984        8.64170       -1.90516
C         -7.71961       10.07468       -2.02763
C         -8.79796       10.61224       -1.43793
C         -9.65056        9.61922       -0.79427
S         -9.14371        8.00014       -1.27845
C        -10.58726        9.85001        0.15000
C        -10.91974       11.13303        0.74245
C        -11.49549       11.01970        1.95138
C        -11.65387        9.64271        2.37900
S        -11.42167        8.56657        1.02461
C        -11.83933        9.25916        3.65575
C        -11.82814        7.89087        4.07355
S        -13.29855        6.98778        4.07026
C        -12.54289        5.50464        4.55761
C        -11.18605        5.71434        4.73496
C        -10.79257        7.09344        4.52873
C         -9.47721        7.55774        4.69944
C         -8.57295        6.53284        5.07059
S         -6.84373        6.96638        5.29364
C         -8.97066        5.16840        5.24746
O         -8.04787        4.20797        5.60393
C        -10.28053        4.69761        5.07594
C        -13.37578        4.34942        4.70028
C        -13.16677        3.45840        5.68058
C        -13.95218        2.26488        5.88023
C        -13.99879        1.54380        7.00915
C        -13.40503        1.70736        8.34690
C        -13.29042        2.85657        9.05361
C        -12.71447        2.91095       10.35625
N        -12.22754        2.96297       11.40649
C        -13.82621        4.10421        8.60192
N        -14.28295        5.11829        8.27928
C        -13.27871        0.32903        8.91619
C        -14.05556       -0.53164        8.13186
C        -14.55868        0.15858        6.93460
O        -15.22282       -0.33625        6.04879
C        -14.29384       -1.86401        8.43994
C        -13.70474       -2.37683        9.61493
C        -12.85988       -1.54462       10.36670
C        -12.62164       -0.18740       10.02693
S        -12.19957       -2.39633       11.71879
C        -13.08104       -3.78890       11.35442
C        -13.83557       -3.67323       10.21862
Br       -13.03260       -5.34015       12.40282
H         -8.09688        0.55900        3.44697
H         -3.93712       -1.48597        5.33874
H         -9.25034       -0.14611        5.98562
H         -2.60161        1.31085        0.46640
H         -4.40668        0.07863       -1.82928
H         -5.00635       -1.22771       -3.64893
H         -6.91176        1.36605       -5.37658
H         -6.51546        4.40505       -3.67532
H         -4.60757        6.59967       -0.88640
H         -7.24037        5.88396       -2.30822
H         -5.63580        8.42860       -2.45401
H         -6.95019       10.65842       -2.51782
H         -8.98792       11.67246       -1.39080
H        -10.66301       12.08230        0.29193
H        -11.75517       11.86269        2.57703
H        -11.90810       10.00863        4.43689
H         -9.17220        8.58604        4.55858
H         -6.72100        7.61350        4.12472
H         -7.18904        4.66642        5.67114
H        -10.50946        3.64719        5.18270
H        -14.22387        4.23992        4.02862
H        -12.34922        3.61209        6.37837
H        -14.46564        1.88812        4.99268
H        -14.92804       -2.47588        7.80443
H        -11.95729        0.39965       10.65166
H        -14.46709       -4.46227        9.82777
