85

C         -4.20230       -0.55742       -3.40854
C         -3.42218       -1.53992       -2.89827
C         -2.64207       -2.41484       -3.70626
N         -2.00247       -3.13310       -4.35543
C         -3.27956       -1.75688       -1.49798
N         -3.18377       -1.93684       -0.35618
C         -4.34987       -0.20198       -4.85782
C         -4.98257        1.03873       -4.94264
C         -5.35846        1.65618       -6.12825
C         -5.06714        0.98367       -7.33155
C         -4.38651       -0.24211       -7.26942
C         -4.02257       -0.85605       -6.04112
S         -4.08625       -0.86118       -8.85542
C         -4.89788        0.42778       -9.58274
C         -5.37841        1.34322       -8.68613
Br        -5.12203        0.58572      -11.43534
C         -5.22027        1.59051       -3.60774
O         -5.42956        2.76532       -3.38413
C         -4.98596        0.45740       -2.65884
C         -5.54658        0.37959       -1.43282
C         -6.46456        1.33669       -0.90151
O         -7.31291        2.05064       -1.72186
C         -7.94778        2.98615       -0.99023
C         -7.62980        2.84521        0.33409
N         -8.14515        3.69939        1.35802
O         -8.89403        4.61891        1.00249
O         -7.79384        3.45767        2.51691
C         -6.74517        1.72121        0.42032
N         -6.20485        1.19783        1.57007
C         -5.95717       -0.17595        1.85668
C         -4.93333       -0.57189        2.73635
N         -4.50439       -1.84669        3.04369
C         -5.05788       -2.94301        2.43588
C         -6.17146       -2.72223        1.58505
C         -6.62639       -1.30805        1.30641
N         -7.70030       -1.26532        0.49381
S         -8.09543       -2.82158        0.11375
N         -6.94085       -3.63545        0.96246
C         -4.57042       -4.27015        2.82725
C         -4.45064       -5.41195        2.11108
C         -4.70177       -5.55804        0.63145
C         -3.98155       -6.68644        2.77465
N         -5.05213       -7.66234        2.71424
C         -4.96885       -8.96243        3.12418
C         -5.93439       -9.88856        3.05853
C         -5.75606      -11.23251        3.56093
C         -5.43254      -11.56351        4.81935
C         -5.21138      -10.76064        6.02944
C         -5.98827       -9.74053        6.47114
C         -5.72243       -9.02885        7.67478
N         -5.49120       -8.44137        8.64866
C         -7.22529       -9.41168        5.83807
N         -8.26853       -9.18846        5.38027
C         -4.21810      -11.50668        6.85185
C         -4.14759      -12.81361        6.35302
C         -4.91673      -12.93818        5.10011
O         -5.03863      -13.93728        4.42386
C         -3.43516      -13.83505        6.96647
C         -2.75472      -13.52820        8.16666
C         -2.76892      -12.20387        8.63373
C         -3.47386      -11.16710        7.97395
S         -1.85447      -12.04861       10.09195
C         -1.51541      -13.70087       10.12964
C         -2.01858      -14.38443        9.05553
Br        -0.54771      -14.51637       11.51032
H         -5.88121        2.60902       -6.11447
H         -3.52333       -1.81691       -6.07491
H         -5.93141        2.23256       -8.96475
H         -5.36600       -0.48595       -0.81463
H         -8.57140        3.67252       -1.55016
H         -6.38998        1.70257        2.44515
H         -4.35217        0.19627        3.25050
H         -4.26849       -4.28244        3.87448
H         -4.66932       -4.60617        0.09745
H         -5.67288       -6.03337        0.45515
H         -3.93457       -6.18965        0.17078
H         -3.70468       -6.51864        3.82195
H         -3.09037       -7.06550        2.26011
H         -5.93626       -7.36109        2.31123
H         -3.99357       -9.21050        3.54137
H         -6.89379       -9.66014        2.59940
H         -5.83524      -12.01170        2.80162
H         -3.43297      -14.83826        6.54918
H         -3.43986      -10.16326        8.38288
H         -1.89618      -15.45052        8.90654
