97

C        -12.51118       -0.92916       -8.42941
C        -13.76001       -1.44904       -8.32153
C        -14.38954       -2.18082       -9.36492
N        -14.91597       -2.77744      -10.21352
C        -14.57106       -1.31357       -7.15628
N        -15.24804       -1.20607       -6.22081
C        -11.59458       -1.04201       -9.61436
C        -10.36793       -0.45254       -9.29166
C         -9.29108       -0.34604      -10.16506
C         -9.45703       -0.84625      -11.47345
C        -10.68002       -1.44146      -11.81434
C        -11.75764       -1.55705      -10.89705
S        -10.67357       -1.97366      -13.45923
C         -9.10473       -1.40267      -13.70481
C         -8.55177       -0.83462      -12.58896
Br        -8.21214       -1.52962      -15.34651
C        -10.39226        0.10030       -7.93505
O         -9.48014        0.68185       -7.38008
C        -11.76952       -0.15122       -7.41120
C        -12.13158        0.39434       -6.24149
N        -11.39407        1.21057       -5.40132
C        -11.80618        1.78188       -4.23152
S        -13.01605        1.04683       -3.22999
C        -12.92615        2.28450       -2.09714
N        -13.78967        2.25711       -0.96302
O        -14.44238        3.28586       -0.74609
O        -13.78566        1.23232       -0.27000
C        -12.02204        3.26230       -2.41875
C        -11.34452        2.96270       -3.65035
C        -10.37307        3.83563       -4.26004
C         -9.59939        4.70377       -3.58388
C         -8.70386        5.64783       -4.21850
C         -8.17933        6.75463       -3.64816
C         -8.41619        7.20117       -2.22876
C         -7.28428        7.67334       -4.44970
N         -8.11090        8.69549       -5.06023
C         -7.81283        9.35668       -6.22523
C         -8.50390       10.35377       -6.79252
C         -8.11388       10.94961       -8.02358
S         -7.14163       10.20332       -9.22165
C         -7.27918       11.51569      -10.35544
C         -7.96830       12.49312       -9.70902
C         -8.45314       12.21062       -8.43032
S         -9.37169       13.51059       -7.59458
C         -9.07178       14.48142       -9.02758
C         -9.55738       15.86558       -9.08891
O         -9.15174       16.65248       -9.95052
C        -10.58558       16.35235       -8.07605
C         -9.93706       16.95948       -6.84414
C         -8.34123       13.82975      -10.04120
C         -6.62373       11.47455      -11.62413
C         -6.51265       10.37340      -12.38698
C         -7.03594        9.01025      -12.25173
C         -8.33338        8.66094      -12.07195
C         -8.76677        7.30387      -12.05388
N         -9.10658        6.19709      -12.03236
C         -9.36935        9.63734      -12.03661
N        -10.22332       10.42460      -12.06430
C         -5.98178        8.10430      -12.76008
C         -5.15152        8.85806      -13.59550
C         -5.45196       10.30286      -13.44733
O         -4.90043       11.22187      -14.01317
C         -4.17844        8.28770      -14.40275
C         -4.01698        6.88111      -14.34002
C         -4.77339        6.14910      -13.40867
C         -5.75144        6.74795      -12.58387
S         -4.36313        4.47212      -13.44613
C         -3.29706        4.70027      -14.73304
C         -3.17614        6.00992      -15.11489
Br        -2.37333        3.29390      -15.55523
H         -8.36844        0.13585       -9.85310
H        -12.67288       -2.01731      -11.24716
H         -7.55475       -0.41199      -12.55644
H        -13.13843        0.26823       -5.86722
H        -10.46871        1.45182       -5.77642
H        -11.86593        4.14906       -1.81557
H        -10.31329        3.81947       -5.34759
H         -9.64899        4.72125       -2.50026
H         -8.48129        5.45474       -5.26888
H         -8.85649        6.42903       -1.59466
H         -9.08611        8.06696       -2.21457
H         -7.47162        7.48787       -1.75464
H         -6.74838        7.10416       -5.21980
H         -6.52053        8.13430       -3.81293
H         -8.84421        9.09627       -4.48281
H         -6.90583        8.97034       -6.68793
H         -9.40094       10.72082       -6.30145
H        -11.27532       15.54629       -7.80321
H        -11.20494       17.11045       -8.56978
H         -9.31975       16.23373       -6.30669
H        -10.70412       17.32366       -6.15270
H         -9.29266       17.80144       -7.11526
H         -8.09941       14.32379      -10.97689
H         -6.09623       12.37958      -11.92357
H         -3.58536        8.89981      -15.07618
H         -6.30990        6.14108      -11.87850
H         -2.53541        6.34636      -15.92092
