88

C         -3.56118       -1.16472        2.19878
C         -2.49825       -1.14462        3.04368
C         -1.88569       -2.33005        3.53155
N         -1.39478       -3.30648        3.93641
C         -1.87917        0.06974        3.45340
N         -1.38504        1.07087        3.79517
C         -4.19965       -2.37481        1.59473
C         -4.91680       -1.97179        0.46514
C         -5.68666       -2.82316       -0.31963
C         -5.75816       -4.17970        0.06487
C         -5.03349       -4.59941        1.19188
C         -4.24724       -3.71153        1.97293
S         -5.25416       -6.29079        1.47459
C         -6.30480       -6.44006        0.16245
C         -6.50574       -5.26466       -0.50982
Br        -7.11882       -8.05662       -0.32052
C         -4.82858       -0.51737        0.28714
O         -5.19278        0.08865       -0.69711
C         -4.19963        0.00115        1.54989
C         -4.41824        1.23698        2.03329
C         -5.21710        2.20039        1.34785
S         -4.45881        3.31636        0.27077
C         -5.93640        4.12758       -0.13270
C         -6.99919        3.46553        0.46154
C         -6.57918        2.42696        1.38076
C         -7.46630        1.69304        2.18185
C         -8.80891        2.06203        1.96781
F         -9.75133        1.43434        2.68981
C         -9.22705        3.04804        1.03382
F        -10.54065        3.29435        0.90350
C         -8.34606        3.79261        0.23600
C         -5.86281        5.29476       -0.96159
C         -6.71074        6.31728       -0.77119
C         -6.76858        7.52141       -1.56369
C         -7.65447        8.52734       -1.39060
C         -8.68272        8.60884       -0.28954
C         -7.66495        9.71332       -2.33230
N         -8.58459        9.45109       -3.42118
C         -8.46774        8.46325       -4.36652
C         -9.27021        8.28088       -5.41922
C         -9.09764        7.21218       -6.38394
C         -9.53505        7.24713       -7.65181
C         -9.40780        6.16895       -8.60366
C        -10.04738        6.39800       -9.76113
C        -10.73241        7.67974       -9.80797
S        -10.32686        8.62210       -8.37811
C        -11.62101        8.09023      -10.73262
C        -12.08441        7.33849      -11.88402
C        -13.17096        7.86458      -12.46953
C        -13.63704        9.07585      -11.83279
S        -12.50016        9.61683      -10.62643
C        -14.81897        9.66279      -12.07764
C        -15.31212       10.84222      -11.39498
C        -16.47054       10.85833      -10.71853
C        -16.93894       12.01629       -9.98394
C        -18.09737       12.02788       -9.30626
C        -18.55132       13.16129       -8.53526
C        -19.40784       13.02978       -7.51449
H         -6.24335       -2.44177       -1.17185
H         -3.74370       -4.09846        2.85188
H         -7.15622       -5.16492       -1.37083
H         -4.06468        1.53706        3.01511
H         -7.19855        0.92772        2.89597
H         -8.71965        4.52336       -0.46795
H         -5.08498        5.35268       -1.71851
H         -7.43635        6.24867        0.02901
H         -6.06808        7.57758       -2.39684
H         -8.62412        7.79694        0.43731
H         -9.69652        8.60109       -0.70164
H         -8.54050        9.53378        0.27857
H         -6.66275        9.92529       -2.72161
H         -7.98256       10.61642       -1.79588
H         -9.26924       10.17603       -3.61923
H         -7.62296        7.79901       -4.20668
H        -10.10258        8.96384       -5.56492
H         -8.59587        6.31791       -6.01881
H         -8.86744        5.25853       -8.38307
H        -10.07943        5.68121      -10.56871
H        -11.62310        6.41922      -12.21467
H        -13.67845        7.42001      -13.31392
H        -15.49645        9.22368      -12.80632
H        -14.66415       11.71650      -11.41899
H        -17.08007        9.95918      -10.66560
H        -16.28160       12.88163       -9.95328
H        -18.74263       11.15199       -9.30518
H        -18.17215       14.14762       -8.79439
H        -19.78088       12.05894       -7.20274
H        -19.72513       13.89270       -6.93808
