88

C        -10.39423        1.76555        3.71381
C        -11.30332        0.95970        3.12260
C        -12.49187        0.52259        3.77455
N        -13.46018        0.16482        4.30697
C        -11.17938        0.54792        1.76188
N        -11.07147        0.20524        0.66188
C        -10.53187        2.38992        5.06097
C         -9.72899        3.53070        5.09990
C         -9.67769        4.40600        6.17700
C        -10.46532        4.09687        7.30807
C        -11.21487        2.90966        7.30458
C        -11.25056        2.03180        6.19356
S        -12.05405        2.69816        8.79931
C        -11.48062        4.16618        9.40101
C        -10.64435        4.82010        8.53649
Br       -11.94362        4.82920       11.09010
C         -8.92253        3.63797        3.87639
O         -8.23015        4.58994        3.58641
C         -9.19187        2.37634        3.10265
C         -8.35442        1.84608        2.19561
C         -7.05848        2.38195        1.93328
S         -6.87625        3.49762        0.64247
C         -5.22606        3.72396        0.98116
C         -4.76803        2.93879        2.02220
C         -3.34520        2.96668        2.48527
C         -5.83431        2.11302        2.55047
C         -5.65563        1.16345        3.62929
C         -6.33853        0.01474        3.77876
C         -6.18313       -0.91431        4.87455
C         -6.91921       -2.03409        4.95824
C         -6.75242       -3.00086        6.02074
C         -6.43520       -4.29136        5.84129
C         -6.19500       -5.22426        6.91407
C         -5.65177       -6.37967        6.50639
C         -5.40973       -6.43482        5.07424
S         -6.14198       -5.03516        4.29021
C         -4.65331       -7.34448        4.43273
C         -3.95160       -8.46051        5.04023
C         -3.06719       -9.05132        4.22478
C         -3.01050       -8.45116        2.91196
S         -4.26240       -7.25205        2.71922
C         -2.11636       -8.78180        1.97031
C         -1.98491       -8.14723        0.67526
C         -1.50676       -8.73457       -0.43810
C         -1.11406      -10.18359       -0.52866
C         -1.37072       -7.94640       -1.71633
N         -2.59762       -8.10907       -2.46692
C         -2.72017       -8.00803       -3.82631
C         -3.84019       -8.14242       -4.54979
C         -3.81744       -8.09597       -5.97574
S         -5.20408       -7.50866       -6.82852
C         -4.44274       -7.67424       -8.35434
C         -3.18797       -8.20733       -8.22344
C         -2.84005       -8.47663       -6.88264
O         -1.65664       -8.99374       -6.47840
C         -0.74246       -9.40060       -7.38435
O          0.44850       -9.50287       -7.11790
C         -1.26153       -9.90189       -8.73883
O         -1.08819      -11.01021       -9.20446
S         -2.06654       -8.56950       -9.50689
H         -9.04861        5.29151        6.14112
H        -11.83109        1.11836        6.26310
H        -10.17738        5.77371        8.75183
H         -8.55497        0.89014        1.72404
H         -4.65742        4.42879        0.39032
H         -2.79282        3.78338        2.00517
H         -2.83845        2.02965        2.23481
H         -3.28648        3.12615        3.56621
H         -4.88730        1.40534        4.36135
H         -7.06462       -0.28249        3.02885
H         -5.42635       -0.69866        5.62515
H         -7.65039       -2.28558        4.19117
H         -6.85061       -2.60940        7.03044
H         -6.39469       -4.98579        7.95040
H         -5.36780       -7.16920        7.18598
H         -4.09922       -8.76772        6.06523
H         -2.43103       -9.87513        4.51796
H         -1.39207       -9.56255        2.19177
H         -2.29381       -7.10252        0.61871
H         -1.58345      -10.79280        0.25005
H         -0.02837      -10.28580       -0.44282
H         -1.43028      -10.61151       -1.48559
H         -0.50416       -8.30469       -2.28569
H         -1.19939       -6.88270       -1.51258
H         -3.44634       -8.26119       -1.92855
H         -1.76350       -7.80799       -4.30505
H         -4.79107       -8.29368       -4.04599
H         -4.96310       -7.38566       -9.25807
