107

C         -3.85222        5.72259        1.61106
C         -2.71494        6.45185        1.47945
C         -1.99980        6.93992        2.60716
N         -1.42177        7.32649        3.53981
C         -2.14027        6.69135        0.22039
N         -1.68027        6.90220       -0.82806
C         -4.49930        5.30626        2.88415
C         -5.26411        4.16364        2.62633
C         -6.13379        3.58903        3.54037
C         -6.30443        4.25768        4.77313
C         -5.51920        5.38941        5.05132
C         -4.58952        5.92363        4.12502
S         -5.88727        6.02942        6.61502
C         -7.11381        4.89650        6.85945
C         -7.24964        4.01008        5.82584
Br        -8.19231        4.86578        8.38976
C         -5.20601        3.81626        1.19333
O         -5.56646        2.78193        0.68903
C         -4.60144        5.03148        0.54850
C         -5.06049        5.52017       -0.62042
C         -6.06427        4.91507       -1.45750
C         -5.67750        4.04636       -2.45454
S         -7.00086        3.46998       -3.34874
C         -8.12246        4.36087       -2.41133
C         -7.52109        5.10080       -1.39797
C         -8.40236        5.84916       -0.53852
C         -7.82185        6.71627        0.57371
C         -7.48386        8.12775        0.11796
C         -9.85830        5.78388       -0.73197
C        -10.75795        6.50938        0.26406
C        -11.06564        7.94442       -0.13969
C        -10.42426        5.02941       -1.82389
C        -11.79939        4.77423       -2.30334
C        -11.81604        3.98239       -3.43257
S        -10.26541        3.48534       -3.90523
C         -9.51700        4.34508       -2.63063
C        -13.02616        5.30768       -1.76556
C        -14.26379        4.75371       -1.74208
C        -15.39791        5.38636       -1.10696
S        -15.17913        6.93217       -0.31534
C        -16.77469        7.03177        0.19862
C        -17.53763        5.95875       -0.19044
C        -18.99605        5.88751        0.13882
C        -16.74260        4.98910       -0.94599
C        -17.31294        3.78676       -1.51630
C        -18.33767        3.07410       -0.98774
C        -18.99810        1.97418       -1.63999
C        -19.64268        2.11694       -2.80684
C        -20.24596        1.00538       -3.51727
C        -20.87820        1.08588       -4.69802
C        -21.38532       -0.04145       -5.44590
C        -21.97192        0.29520       -6.60543
C        -21.99891        1.72410       -6.85192
S        -21.16855        2.57323       -5.54795
C        -22.58725        2.37150       -7.87417
C        -23.32398        1.80981       -8.98735
C        -23.94288        2.73029       -9.74731
C        -23.73923        4.09412       -9.29740
S        -22.60191        4.11939       -7.98166
C        -24.38634        5.16871       -9.78301
C        -24.23225        6.51418       -9.30507
O        -25.29632        7.42532       -9.37117
C        -24.84060        8.57649       -8.80966
C        -25.27859        9.87015       -8.51535
C        -24.15157       10.46885       -7.94573
O        -23.10187        9.55674       -7.89429
C        -23.57508        8.41927       -8.44695
C        -23.11433        7.14907       -8.75772
C        -24.01168       11.80611       -7.47536
C        -22.85577       12.22557       -6.94277
H         -6.73760        2.72760        3.26716
H         -4.05905        6.83685        4.37292
H         -7.99943        3.22846        5.79243
H         -4.73551        6.50460       -0.94950
H         -4.67912        3.71208       -2.70085
H         -6.91939        6.24671        0.95671
H         -8.45028        6.75011        1.46373
H         -7.10132        8.15606       -0.90724
H         -6.73667        8.57218        0.78205
H         -8.35577        8.78110        0.16826
H        -10.33141        6.48631        1.26856
H        -11.68500        5.94827        0.40534
H        -10.18995        8.47488       -0.51087
H        -11.46525        8.49744        0.71622
H        -11.79978        7.99962       -0.94567
H        -12.67514        3.67699       -4.01784
H        -12.89746        6.27890       -1.32977
H        -14.41760        3.77583       -2.18841
H        -17.09781        7.89265        0.76428
H        -19.33972        6.81661        0.60355
H        -19.18979        5.09543        0.86635
H        -19.59658        5.72409       -0.76019
H        -16.91547        3.46233       -2.48127
H        -18.72748        3.29482       -0.00477
H        -19.00038        1.03045       -1.10828
H        -19.68541        3.10291       -3.26912
H        -20.11791        0.02623       -3.06118
H        -21.27801       -1.05984       -5.09802
H        -22.39634       -0.42753       -7.28688
H        -23.38330        0.74698       -9.17480
H        -24.55315        2.48699      -10.60660
H        -25.13331        5.03286      -10.55868
H        -26.24373       10.31842       -8.69099
H        -22.12369        6.75849       -8.59080
H        -24.85084       12.48655       -7.56279
H        -21.99479       11.57009       -6.84126
H        -22.74039       13.24597       -6.59309
