90

C         -4.46093        0.58084        4.26555
C         -3.18843        0.54628        3.79872
C         -2.27109       -0.48001        4.16481
N         -1.52778       -1.31893        4.46212
C         -2.64330        1.56001        2.95933
N         -2.19610        2.38155        2.26313
C         -5.07093       -0.36007        5.25768
C         -6.18307        0.26623        5.82355
C         -6.98346       -0.29192        6.81140
C         -6.67127       -1.59606        7.24223
C         -5.59681       -2.26672        6.63623
C         -4.77761       -1.66322        5.64356
S         -5.44903       -3.87310        7.26061
C         -6.70726       -3.63212        8.36061
C         -7.29708       -2.40273        8.25122
Br        -7.24098       -4.91885        9.61240
C         -6.43691        1.55964        5.18691
O         -7.27443        2.35703        5.55418
C         -5.45788        1.65415        4.05047
C         -5.62396        2.46505        2.99313
C         -6.71897        3.38811        2.78897
C         -6.81350        4.17926        1.71182
C         -7.91382        5.09520        1.53575
C         -8.02790        5.89583        0.46710
C         -9.11172        6.83411        0.30518
C        -10.39523        6.45099        0.29768
C        -11.50349        7.36577        0.12707
C        -12.80026        7.02290        0.10679
C        -13.88158        7.95743       -0.08752
C        -15.09276        7.38297       -0.10759
C        -15.06614        5.94133        0.07720
S        -13.40606        5.39836        0.29840
C        -16.12410        5.10805        0.06727
C        -17.51061        5.47788       -0.14281
C        -18.35405        4.43631       -0.17994
C        -17.70674        3.15795        0.01033
S        -15.99604        3.36353        0.28634
C        -18.33566        1.97392       -0.05134
C        -17.73838        0.66661        0.13958
C        -17.17615        0.28492        1.29486
C        -16.57744       -1.00800        1.50947
C        -16.95911       -1.79706        2.52419
C        -16.35440       -3.07100        2.83708
C        -15.05804       -3.19607        3.16175
C        -14.44251       -4.45825        3.50823
C        -13.16405       -4.69639        3.84153
C        -11.95204       -3.86925        3.96986
C        -11.84389       -2.63396        4.51892
C        -10.61529       -1.91496        4.57561
N         -9.61527       -1.32612        4.60512
C        -12.92714       -1.99122        5.18706
N        -13.77629       -1.45499        5.76778
C        -10.79893       -4.76510        3.63501
C        -11.25868       -6.08648        3.62889
C        -12.71680       -6.12984        3.81968
O        -13.39949       -7.13150        3.87381
C        -10.45002       -7.19341        3.39199
C         -9.08759       -6.95998        3.09999
C         -8.61736       -5.63789        3.09640
C         -9.45549       -4.52639        3.36796
S         -6.93418       -5.57658        2.70794
C         -6.86811       -7.24447        2.45948
C         -8.04563       -7.88361        2.74209
Br        -5.33873       -8.12631        1.83369
H         -7.83394        0.25520        7.20930
H         -3.96938       -2.24238        5.21031
H         -8.12606       -2.06826        8.86394
H         -4.92766        2.42889        2.15978
H         -7.50725        3.42996        3.53728
H         -6.04902        4.16132        0.93905
H         -8.66371        5.13420        2.32615
H         -7.28107        5.88993       -0.32235
H         -8.82704        7.87262        0.16127
H        -10.62419        5.39276        0.41402
H        -11.23774        8.41352        0.00094
H        -13.71447        9.01835       -0.21281
H        -16.00360        7.94488       -0.25254
H        -17.83542        6.49995       -0.27217
H        -19.41937        4.53085       -0.33782
H        -19.39617        1.94716       -0.29398
H        -17.81714       -0.02450       -0.69681
H        -17.14571        0.96846        2.14327
H        -15.77747       -1.30158        0.83320
H        -17.79124       -1.50267        3.16179
H        -17.02953       -3.92376        2.85132
H        -14.44862       -2.29999        3.14845
H        -15.10608       -5.32150        3.40313
H        -10.86836       -8.19657        3.38917
H         -9.02414       -3.53355        3.32557
H         -8.18721       -8.95447        2.65581
