87

C         -2.89636        1.90350       -4.13483
C         -2.74889        3.15740       -4.62017
C         -1.51542        3.62862       -5.14668
N         -0.51135        4.03180       -5.56170
C         -3.82880        4.07264       -4.72913
N         -4.68940        4.84797       -4.83613
C         -1.88263        0.82557       -4.21770
C         -2.54953       -0.40219       -4.26023
C         -1.88341       -1.61550       -4.39679
C         -0.46330       -1.59507       -4.40747
C          0.19663       -0.36186       -4.28373
C         -0.49536        0.86541       -4.19419
S          1.91108       -0.56045       -4.24208
C          1.78117       -2.23378       -4.39938
C          0.48669       -2.67368       -4.49267
Br         3.27003       -3.37019       -4.42820
C         -3.99834       -0.20053       -3.99712
O         -4.86337       -1.05007       -3.97370
C         -4.13797        1.26058       -3.67785
C         -5.09405        1.79196       -2.89962
N         -6.20752        1.23835       -2.30144
C         -7.13739        1.85762       -1.50396
S         -7.92503        0.91581       -0.27317
C         -8.81083        2.24255        0.29274
N         -9.70654        2.14668        1.41362
O        -10.28368        3.19282        1.74381
O         -9.83427        1.04884        1.96840
C         -8.58845        3.37524       -0.44396
C         -7.63513        3.16517       -1.49209
C         -7.30534        4.19392       -2.43950
C         -7.82508        5.43185       -2.46044
C         -7.48876        6.39341       -3.47744
C         -8.38002        6.95413       -4.31453
C         -9.85678        6.65403       -4.31280
C         -7.92551        7.95297       -5.34669
N         -7.61293        7.26126       -6.57437
C         -8.49447        6.95207       -7.57255
C         -8.19275        6.40993       -8.75550
C         -9.19259        6.11905       -9.76387
C         -8.95824        5.56119      -10.96070
C         -9.98307        5.21381      -11.91710
C         -9.52939        4.46731      -12.93720
C         -8.10615        4.17991      -12.86202
S         -7.38421        5.10489      -11.54751
C         -7.40677        3.29756      -13.60129
C         -7.93085        2.39795      -14.61069
C         -7.03326        1.50772      -15.06214
C         -5.72148        1.64476      -14.46390
S         -5.67803        3.01248      -13.38385
C         -4.68713        0.81963      -14.69650
C         -3.41382        0.97097      -14.07170
S         -2.19052        1.92224      -14.82778
C         -1.02484        1.63777      -13.57212
C         -1.59733        0.83805      -12.60300
C         -2.92458        0.45190      -12.89513
S         -3.71890       -0.59683      -11.73282
C         -2.34076       -0.73102      -10.63327
O         -2.34757       -1.45312       -9.64648
S         -0.94203        0.25047      -11.08133
C          0.25901        2.24639      -13.71541
C          1.38419        1.70286      -13.24905
H         -2.43379       -2.55073       -4.44954
H          0.06753        1.78494       -4.07328
H          0.21371       -3.71662       -4.59653
H         -4.96854        2.82363       -2.58716
H         -6.24252        0.21572       -2.36363
H         -9.10753        4.30524       -0.24504
H         -6.62671        3.94138       -3.24614
H         -8.56663        5.76228       -1.74087
H         -6.42997        6.63031       -3.57237
H        -10.16471        5.98506       -3.50398
H        -10.14930        6.17256       -5.25047
H        -10.43153        7.57908       -4.20253
H         -7.03195        8.48657       -5.00230
H         -8.69264        8.71679       -5.51561
H         -6.63130        7.05412       -6.73972
H         -9.52513        7.19345       -7.32424
H         -7.15406        6.17073       -8.96702
H        -10.21926        6.35431       -9.49021
H        -11.01563        5.50921      -11.79346
H        -10.16842        4.10424      -13.72947
H         -8.96153        2.41332      -14.93655
H         -7.26419        0.74095      -15.78925
H         -4.80390       -0.02116      -15.37323
H          0.32452        3.18112      -14.26899
H          1.43016        0.75714      -12.72384
H          2.33865        2.20906      -13.40724
