98

C         -2.21142       -0.62837       -1.95837
C         -2.43083       -1.94123       -1.69099
C         -1.49055       -2.96107       -1.99610
N         -0.71332       -3.79976       -2.24014
C         -3.60227       -2.41037       -1.02729
N         -4.55399       -2.80048       -0.49123
C         -0.96472       -0.05079       -2.56460
C         -0.98228        1.33224       -2.37741
C          0.03871        2.19409       -2.75873
C          1.13437        1.64235       -3.45078
C          1.14141        0.26388       -3.71036
C          0.10756       -0.60358       -3.26139
S          2.53331       -0.17830       -4.63938
C          3.08763        1.41572       -4.68981
C          2.29408        2.28775       -3.99374
Br         4.62436        1.95060       -5.61678
C         -2.25082        1.77074       -1.79467
O         -2.55351        2.92974       -1.58969
C         -3.06835        0.52714       -1.57676
C         -4.34746        0.60481       -1.16708
C         -5.02740        1.86846       -0.82357
C         -5.02572        2.42072        0.46646
C         -5.66129        3.68135        0.75381
N         -5.65222        4.14528        2.02005
C         -4.98041        3.45850        2.97973
C         -4.36934        2.26267        2.69744
N         -4.40346        1.72695        1.44822
C         -3.64484        1.51218        3.67884
N         -3.04841        0.92033        4.47927
C         -4.95289        4.06099        4.28025
N         -4.92473        4.51901        5.34739
C         -6.30779        4.44976       -0.23718
C         -6.30461        3.92744       -1.56666
C         -5.65429        2.60517       -1.86136
N         -5.72619        2.25208       -3.15717
S         -6.51300        3.47831       -3.94427
N         -6.82005        4.48909       -2.67487
C         -6.97598        5.71991        0.03782
O         -8.08307        5.98790       -0.74546
C         -6.86110        6.75756        0.92031
C         -6.08769        7.27208        2.01222
O         -5.06818        6.82624        2.50730
N         -6.73209        8.44283        2.36547
C         -7.82842        8.74482        1.58655
O         -8.56808        9.70779        1.67452
C         -7.90008        7.66120        0.65792
C         -8.65563        7.20358       -0.38684
C         -9.79108        7.76215       -1.02554
C        -10.68485        6.95812       -1.61887
C        -11.86139        7.45611       -2.30174
C        -12.48672        6.84372       -3.31854
C        -13.61939        7.39299       -4.02552
C        -13.89586        6.75175       -5.17076
C        -12.97783        5.66232       -5.46226
S        -11.96073        5.35234       -4.05758
C        -12.82065        5.04599       -6.64889
C        -13.56105        5.32275       -7.86595
C        -13.00853        4.78882       -8.96429
C        -11.79302        4.05126       -8.69370
S        -11.54780        3.86876       -6.97953
C        -10.92918        3.67511       -9.64881
C         -9.65104        3.01852       -9.44301
C         -8.55005        3.08961      -10.20792
C         -8.19552        3.79605      -11.44706
C         -8.91737        3.85683      -12.59134
C         -8.43773        4.48728      -13.77386
N         -8.05469        5.00711      -14.73918
C        -10.16454        3.19018      -12.75537
N        -11.18211        2.65687      -12.90672
C         -6.74140        4.12769      -11.34396
C         -6.19518        3.35877      -10.31323
C         -7.25547        2.63477       -9.59025
O         -7.09080        1.87683       -8.65754
C         -4.83812        3.32163      -10.01253
C         -3.96497        4.10065      -10.80610
C         -4.51563        4.92311      -11.80158
C         -5.90751        4.97285      -12.06818
S         -3.28362        5.81197      -12.62651
C         -2.06053        5.07150      -11.73036
C         -2.53076        4.20322      -10.78162
Br        -0.23906        5.40745      -12.01231
H         -0.03351        3.26021       -2.56203
H          0.17820       -1.65660       -3.51041
H          2.49637        3.34748       -3.90253
H         -4.99152       -0.25838       -1.04868
H         -6.41123        9.03471        3.11237
H         -9.90076        8.84271       -1.04037
H        -10.53895        5.87792       -1.60190
H        -12.22381        8.42656       -1.96858
H        -14.15723        8.26365       -3.67656
H        -14.68620        7.05769       -5.84061
H        -14.45280        5.93227       -7.89417
H        -13.40122        4.92449       -9.96333
H        -11.20436        3.94890      -10.65663
H         -9.56358        2.48015       -8.49528
H         -4.46715        2.69672       -9.20526
H         -6.26791        5.64467      -12.83963
H         -1.89318        3.64392      -10.10749
