80

C         -1.76925       -0.52972        1.09718
C         -1.91814       -1.72375        1.72111
C         -0.85172       -2.66109        1.87556
N          0.01125       -3.42226        2.02243
C         -3.15360       -2.18707        2.26715
N         -4.14191       -2.58962        2.72402
C         -0.51801       -0.03181        0.42838
C         -0.82126        1.12937       -0.28391
C          0.09790        1.87000       -1.02082
C          1.43325        1.42135       -1.04182
C          1.75954        0.25775       -0.33099
C          0.79900       -0.48169        0.41042
S          3.44089       -0.11171       -0.48802
C          3.71380        1.24171       -1.45854
C          2.58626        1.98268       -1.68848
Br         5.39688        1.68592       -2.14967
C         -2.22746        1.49590       -0.12233
O         -2.75853        2.43064       -0.68592
C         -2.81131        0.50877        0.84735
C         -4.03981        0.66270        1.36686
C         -4.98030        1.74314        1.09878
C         -6.31556        1.64096        1.18282
C         -7.24867        2.70309        0.88778
C         -8.53057        2.30569        0.87153
C         -8.70281        0.89012        1.13945
S         -7.15499        0.16840        1.57193
C         -9.83181        0.16943        1.01941
C        -11.14690        0.64172        0.62746
C        -12.01485       -0.34745        0.36013
C        -11.42195       -1.66244        0.47394
S         -9.86218       -1.57672        1.23005
C        -11.95364       -2.78442       -0.02819
C        -11.24477       -4.04988       -0.19910
C        -11.77574       -5.17514       -0.69443
C        -11.01438       -6.31465       -1.15274
C        -11.73530       -7.16208       -1.90600
C        -13.13120       -6.77611       -2.03747
S        -13.46948       -5.40247       -0.98587
C        -14.05926       -7.26914       -2.87748
C        -13.88519       -8.27795       -3.90385
C        -14.90331       -8.32665       -4.78109
C        -15.95118       -7.36396       -4.50327
S        -15.70214       -6.62744       -2.94806
C        -16.93992       -7.02280       -5.34338
C        -17.86450       -5.97546       -5.04283
C        -17.81996       -4.60836       -5.33485
C        -16.72143       -3.98735       -6.04782
O        -16.08039       -4.55787       -6.92059
O        -16.38920       -2.73087       -5.65482
C        -19.03308       -4.07220       -4.79157
N        -19.70706       -5.03671       -4.14857
O        -18.99984       -6.19533       -4.31312
C        -19.55362       -2.72156       -4.87133
C        -20.36451       -2.20149       -3.93089
C        -19.25657       -1.89346       -5.99797
C        -19.01090       -1.13816       -6.89725
C        -18.68989       -0.20819       -7.92229
C        -19.51546        0.79359       -8.24637
H         -0.20965        2.77121       -1.54505
H          1.13907       -1.36057        0.94426
H          2.56696        2.88714       -2.28482
H         -4.42220       -0.05696        2.08178
H         -4.56179        2.69917        0.79269
H         -6.92828        3.71344        0.67352
H         -9.35319        2.96650        0.63874
H        -11.39374        1.68853        0.52552
H        -13.02624       -0.18869        0.01045
H        -12.94149       -2.71813       -0.47938
H        -10.16824       -4.02590       -0.04147
H         -9.95223       -6.41498       -0.97215
H        -11.31082       -8.02988       -2.39192
H        -12.99639       -8.88753       -3.98983
H        -14.92435       -8.97811       -5.64427
H        -17.02895       -7.49643       -6.31482
H        -16.90019       -2.39843       -4.89503
H        -20.65790       -2.77141       -3.05321
H        -20.77600       -1.19989       -4.01765
H        -17.73684       -0.31800       -8.43088
H        -20.47301        0.93326       -7.75529
H        -19.24146        1.50416       -9.02059
