117

C         -4.61004        5.12964       -9.41167
C         -4.19390        6.11903      -10.23983
C         -3.89013        5.89226      -11.61391
N         -3.65309        5.70886      -12.73422
C         -3.99125        7.46221       -9.79708
N         -3.81817        8.55737       -9.45529
C         -4.73211        3.67001       -9.73352
C         -4.85829        2.96501       -8.53439
C         -5.03435        1.59075       -8.43261
C         -5.05600        0.84978       -9.62907
C         -4.90723        1.53369      -10.84586
C         -4.76150        2.94670      -10.92120
S         -4.92565        0.42817      -12.17546
C         -5.12810       -0.90104      -11.15440
C         -5.21262       -0.56278       -9.83147
Br        -5.22156       -2.66709      -11.77093
C         -4.81788        3.87097       -7.38957
O         -4.70560        3.50847       -6.23797
C         -4.90223        5.25527       -7.96373
C         -5.36962        6.30519       -7.26968
C         -5.78341        6.28209       -5.88341
C         -6.27346        7.34913       -5.23971
C         -6.73460        7.24942       -3.89957
O         -7.71247        8.09307       -3.42546
C         -8.03918        7.76497       -2.12785
C         -7.21775        6.71989       -1.75607
C         -6.39956        6.40833       -2.84752
O         -5.44299        5.46661       -2.86961
O         -7.17485        6.11479       -0.55312
C         -9.05079        8.44047       -1.40531
C         -9.33085        9.71329       -1.70931
C        -10.39635       10.45206       -1.09573
C        -10.53987       10.64970        0.22499
C        -11.64191       11.37590        0.77672
S        -12.88557       12.00046       -0.23218
C        -13.76144       12.68668        1.05296
C        -13.16401       12.38382        2.26864
C        -11.91266       11.67341        2.10817
C        -11.06667       11.29405        3.29938
C        -11.45604       12.06330        4.56973
C        -12.97629       12.02929        4.78013
N        -13.33699       12.64157        6.06386
C        -13.68983       12.76205        3.63046
C        -14.93102       13.42169        0.70308
C        -15.33839       14.46358        1.43471
C        -16.51699       15.25197        1.15314
C        -16.92626       16.29132        1.89574
C        -18.10360       17.07814        1.62691
C        -18.23142       18.14228        2.43342
C        -17.14109       18.29272        3.38286
S        -16.08650       16.89104        3.30257
C        -16.90550       19.34582        4.18711
C        -17.72804       20.53197        4.31966
C        -17.24407       21.43610        5.18346
C        -15.99656       21.03998        5.79754
S        -15.46951       19.49193        5.19964
C        -15.34807       21.75060        6.73181
C        -14.08555       21.38411        7.34916
C        -13.85204       21.20560        8.66000
C        -12.43457       21.29546        9.13118
O        -11.41621       21.20791        8.47581
C        -12.51911       21.62122       10.56530
C        -13.86058       21.66387       10.99127
C        -14.72149       21.30254        9.83871
C        -16.01950       20.96373        9.88558
C        -17.09740       21.62277       10.67804
O        -17.01642       22.43013       11.57872
C        -18.35052       21.23790       10.00915
C        -18.10177       20.31047        9.00434
C        -16.67622       20.00573        8.95006
O        -16.17885       19.06535        8.38554
C        -19.10267       19.82436        8.18416
C        -20.38960       20.32882        8.37659
C        -20.64524       21.28513        9.38011
C        -19.62112       21.74627       10.21498
C        -14.11316       21.86358       12.33988
C        -13.03604       22.07378       13.21558
C        -11.71075       22.06655       12.75431
C        -11.43952       21.83188       11.40996
H         -5.15344        1.11678       -7.46147
H         -4.68098        3.40603      -11.89941
H         -5.35631       -1.27772       -9.02960
H         -5.53001        7.26371       -7.75598
H         -5.72721        5.33663       -5.35034
H         -6.39482        8.30676       -5.73615
H         -5.41821        5.03849       -1.99357
H         -7.78188        6.55275        0.06854
H         -9.60635        7.90616       -0.64154
H         -8.80454       10.23238       -2.50974
H        -11.08789       10.86613       -1.82484
H         -9.79987       10.24772        0.91219
H        -10.00693       11.47932        3.08919
H        -11.18119       10.21842        3.48384
H        -11.11456       13.10473        4.48803
H        -10.93629       11.62548        5.43051
H        -13.31130       10.98472        4.80016
H        -13.01755       13.61150        6.08782
H        -12.85358       12.16741        6.82443
H        -13.54660       13.84181        3.75930
H        -14.76617       12.55467        3.68214
H        -15.46128       13.15091       -0.20642
H        -14.75655       14.76331        2.29818
H        -17.09014       14.96585        0.27487
H        -18.79776       16.82764        0.83723
H        -19.04745       18.84441        2.35179
H        -18.64784       20.67344        3.77122
H        -17.73014       22.37646        5.40202
H        -15.76167       22.70200        7.06022
H        -13.24199       21.36292        6.65623
H        -18.88455       19.09713        7.40573
H        -21.20325       19.98819        7.73840
H        -21.65424       21.67738        9.49956
H        -19.80763       22.49510       10.97757
H        -15.11498       21.83662       12.75264
H        -13.23232       22.22928       14.27505
H        -10.89306       22.22625       13.45356
H        -10.42195       21.79849       11.03326
