114

C         -4.08756        0.06036        2.67162
C         -2.94936       -0.65925        2.51585
C         -2.69091       -1.85113        3.24803
N         -2.47988       -2.82627        3.85301
C         -1.96375       -0.30787        1.55813
N         -1.15017       -0.00374        0.77201
C         -5.24385       -0.27458        3.56001
C         -6.35819        0.42362        3.08587
C         -7.59728        0.42994        3.70847
C         -7.73777       -0.32076        4.89563
C         -6.63522       -1.05123        5.36898
C         -5.37150       -1.04054        4.71586
S         -7.04324       -1.90996        6.81488
C         -8.61228       -1.28637        6.82282
C         -8.87266       -0.45784        5.76529
Br        -9.87310       -1.68591        8.14972
C         -6.01193        1.20528        1.88995
O         -6.79477        1.60820        1.05662
C         -4.51567        1.23431        1.86666
C         -3.78303        2.26956        1.41409
C         -4.32539        3.50153        0.92149
S         -4.66665        4.73986        2.06027
C         -5.23610        5.83063        0.86430
C         -5.83634        7.13406        1.34699
C         -7.32198        6.97979        1.66597
C         -5.01503        5.32954       -0.41219
C         -4.47443        3.96673       -0.38340
C         -4.04208        3.16151       -1.58966
C         -5.16072        2.43888       -2.32572
C         -5.25037        6.12326       -1.59667
C         -6.41539        6.17782       -2.26482
C         -6.59082        6.98388       -3.42926
N         -5.77944        7.92473       -3.90409
C         -6.17011        8.26236       -5.17533
C         -7.28065        7.58519       -5.63622
S         -7.97882        6.63742       -4.45839
C         -7.32885        7.57862       -7.09803
C         -5.76825        7.57120       -7.34177
C         -5.25372        8.70983       -6.34639
C         -5.64260       10.11888       -6.88561
C         -5.30364       11.32906       -6.02304
C         -3.76829        8.57928       -5.91747
C         -2.70889        8.62866       -7.00051
N         -5.54361        7.57610       -8.80745
C         -6.72326        6.92308       -9.45801
S         -7.80965        6.25920       -8.14832
C         -4.28888        7.19240       -9.28834
C         -3.78625        7.10262      -10.52240
C         -4.44625        7.45216      -11.74650
C         -3.81189        6.99839      -12.83467
C         -2.57835        6.28638      -12.54326
S         -2.21571        6.40001      -10.82118
C         -1.85288        5.57246      -13.42324
C         -2.16140        5.38019      -14.82991
C         -1.46732        4.38424      -15.39910
C         -0.58607        3.71063      -14.47075
S         -0.44487        4.60858      -12.98387
C         -0.04519        2.50570      -14.69503
C          0.70728        1.70989      -13.71596
C          0.11595        0.72729      -12.86288
O         -1.26548        0.71622      -12.92264
C         -1.97070       -0.49748      -12.70106
C          0.90060       -0.07129      -11.96982
O          0.24506       -0.97258      -11.16372
C          0.83832       -1.26098       -9.90039
C          2.30767        0.01832      -11.91170
C          2.92404        1.00318      -12.71496
C          2.11799        1.87591      -13.63421
N          2.88369        2.74922      -14.31461
S          4.44622        2.51289      -13.81322
N          4.24176        1.25338      -12.75268
H         -8.41207        1.02793        3.31089
H         -4.55111       -1.59786        5.15679
H         -9.82249        0.03864        5.60430
H         -2.70309        2.27221        1.52688
H         -5.70572        7.93380        0.61132
H         -5.31241        7.47546        2.25110
H         -7.89834        6.81197        0.75067
H         -7.70931        7.88503        2.14670
H         -7.51847        6.13770        2.33998
H         -3.30737        2.40549       -1.28113
H         -3.50444        3.81797       -2.28333
H         -5.32889        1.44432       -1.89657
H         -4.87235        2.28629       -3.37256
H         -6.10902        2.98147       -2.30683
H         -4.41243        6.72878       -1.94648
H         -7.25194        5.55695       -1.95956
H         -7.81819        8.48456       -7.47025
H         -5.35120        6.61863       -6.95553
H         -5.18170       10.26412       -7.86905
H         -6.72417       10.17796       -7.05096
H         -4.23216       11.54230       -6.03271
H         -5.64227       11.21024       -4.99028
H         -5.80906       12.21421       -6.43192
H         -3.53451        9.36884       -5.19085
H         -3.62641        7.63878       -5.36439
H         -3.02196        9.21073       -7.87043
H         -2.43240        7.61302       -7.29973
H         -1.77696        9.05339       -6.62242
H         -6.43796        6.10232      -10.12185
H         -7.26530        7.68256      -10.02944
H         -3.66733        6.81476       -8.48882
H         -5.38024        7.99187      -11.76489
H         -4.20562        7.12273      -13.83112
H         -2.91589        5.94579      -15.35727
H         -1.60150        4.06248      -16.42278
H         -0.22390        1.99491      -15.63663
H         -1.86023       -0.88931      -11.68979
H         -1.71280       -1.24603      -13.45610
H         -3.03834       -0.27366      -12.80013
H          1.61530       -2.02350      -10.01177
H          0.05792       -1.67178       -9.25257
H          1.23419       -0.36218       -9.41492
H          2.91942       -0.61418      -11.28305
