88

C        -18.09701       -9.07873        4.37586
C        -17.33559      -10.04387        3.80895
C        -17.82330      -10.97522        2.84855
N        -18.20968      -11.73071        2.05341
C        -15.97782      -10.26466        4.18244
N        -14.88392      -10.46541        4.48656
C        -19.57903       -8.95935        4.21939
C        -20.06673       -8.16157        5.25295
C        -21.41726       -7.91683        5.47855
C        -22.34887       -8.51010        4.59962
C        -21.86700       -9.27603        3.52832
C        -20.48444       -9.49761        3.30979
S        -23.16443       -9.89101        2.56758
C        -24.32340       -9.18351        3.56867
C        -23.78474       -8.46930        4.60517
Br       -26.16585       -9.35962        3.28391
C        -18.96839       -7.61388        6.05817
O        -19.12590       -6.90746        7.03242
C        -17.69116       -8.09355        5.41925
C        -16.47796       -7.57377        5.69394
C        -16.17048       -6.53356        6.67135
C        -14.99384       -5.91606        6.87292
C        -14.83240       -4.79105        7.77050
C        -13.71621       -4.08355        7.54008
C        -12.90947       -4.62082        6.45782
S        -13.50235       -6.23280        6.02653
C        -11.99092       -3.95321        5.73420
C        -11.72539       -2.52544        5.78696
C        -11.26562       -2.04297        4.61853
C        -11.11282       -3.07132        3.60302
S        -11.13457       -4.64191        4.36413
C        -11.10433       -2.83417        2.27828
C        -11.12143       -3.81290        1.16115
C        -11.75540       -5.01510        1.31100
C        -13.29206       -4.89764        1.40268
C        -13.80418       -4.04658        0.26545
C        -15.10678       -3.97191       -0.17791
S        -15.26229       -2.95281       -1.54064
C        -13.58602       -2.60007       -1.54979
C        -12.91364       -3.21565       -0.51510
C        -11.42839       -3.12553       -0.19774
C        -11.26805       -6.23779        0.59509
C         -9.99424       -6.28958        0.10759
C         -8.88258       -6.52948        1.16387
C         -9.32853       -7.50277        2.23162
C         -8.58285       -7.99710        3.28157
S         -9.46537       -9.10894        4.24185
C        -10.86763       -8.91850        3.28453
C        -10.67569       -8.00866        2.26763
C        -11.70720       -7.54990        1.27665
N         -9.67705       -6.62754       -1.22447
C        -10.43351       -6.51117       -2.36790
S        -12.16876       -6.50791       -2.35922
C        -12.26218       -6.34434       -4.02356
N        -13.53919       -6.22422       -4.64014
O        -13.71027       -5.23071       -5.35745
O        -14.34849       -7.14136       -4.45050
C        -11.04506       -6.30021       -4.64337
C         -9.97467       -6.39817       -3.68922
C         -8.59142       -6.30108       -4.06688
C         -8.08614       -6.62410       -5.26786
H        -21.73652       -7.30036        6.31476
H        -20.19053      -10.08978        2.45162
H        -24.37320       -7.94249        5.34654
H        -15.61469       -7.89517        5.11816
H        -17.00308       -6.17301        7.27012
H        -15.57517       -4.52271        8.50943
H        -13.45714       -3.18510        8.08211
H        -11.97899       -1.90067        6.63138
H        -11.10188       -0.99283        4.42000
H        -11.14756       -1.78975        1.97055
H        -13.57977       -4.44292        2.35880
H        -13.79814       -5.86459        1.35647
H        -15.97281       -4.48290        0.22076
H        -13.18329       -1.95716       -2.31951
H        -11.12858       -2.07046       -0.19397
H        -10.85120       -3.60980       -0.99367
H         -8.61201       -5.56939        1.62108
H         -7.97733       -6.92697        0.68944
H         -7.55872       -7.76960        3.54053
H        -11.77116       -9.46623        3.52062
H        -12.66892       -7.46685        1.78800
H        -11.82977       -8.32435        0.50848
H         -8.70556       -6.90815       -1.33997
H        -10.92520       -6.17632       -5.71382
H         -7.90025       -5.89743       -3.32977
H         -8.69071       -7.03023       -6.07408
H         -7.02905       -6.49041       -5.47753
