88

C         -4.93545       -3.46166       -7.61031
C         -4.42465       -4.20678       -6.59943
C         -3.69468       -5.41163       -6.81583
N         -3.09349       -6.39159       -6.98828
C         -4.64384       -3.89450       -5.22828
N         -4.81476       -3.65402       -4.10449
C         -4.93873       -3.84564       -9.05351
C         -5.95270       -3.13731       -9.69944
C         -6.29547       -3.30881      -11.03500
C         -5.55528       -4.24903      -11.78606
C         -4.49507       -4.92292      -11.16100
C         -4.15858       -4.72329       -9.79887
S         -3.70285       -5.99408      -12.26141
C         -4.76838       -5.60182      -13.50913
C         -5.69827       -4.66116      -13.15534
Br        -4.68174       -6.37977      -15.21071
C         -6.56753       -2.16213       -8.78580
O         -7.48740       -1.42558       -9.07590
C         -5.79876       -2.26194       -7.49439
C         -5.88630       -1.34138       -6.52085
C         -6.77783       -0.19314       -6.53029
C         -7.65761        0.10719       -5.56238
C         -8.62088        1.17929       -5.64083
C         -9.53821        1.15275       -4.66261
C         -9.35902        0.06369       -3.71980
S         -7.86800       -0.81054       -4.09572
C        -10.20934       -0.30611       -2.74321
C        -11.51138        0.25701       -2.44243
C        -12.23887       -0.48711       -1.59196
C        -11.56204       -1.68870       -1.14207
S         -9.90271       -1.65698       -1.67287
C        -12.14928       -2.68571       -0.45063
N        -11.69211       -3.91985        0.04998
C        -12.47540       -4.80865        0.77265
C        -13.85280       -4.88435        0.79836
S        -14.42689       -6.15265        1.80645
C        -12.83840       -6.61863        2.23679
C        -11.90308       -5.83037        1.61346
N        -10.54679       -6.00375        1.72398
C         -9.89312       -5.68690        0.43362
C        -10.23559       -4.26218       -0.00800
N         -9.96180       -5.44320        2.85957
C         -8.82264       -5.89444        3.45768
S         -7.99258       -7.32108        2.94470
C         -6.73362       -7.05452        4.03202
N         -5.61997       -7.94279        4.02395
O         -5.37537       -8.53145        5.08434
O         -4.96863       -8.01817        2.97490
C         -6.93945       -5.99030        4.86929
C         -8.16423       -5.32206        4.54848
C         -8.66472       -4.22075        5.31962
C         -8.37612       -2.92519        5.10931
N         -8.75375       -1.77294        5.80576
C         -9.31875       -1.69867        7.06760
C         -9.24646       -2.62752        8.08307
S        -10.13208       -2.15607        9.47554
C        -10.56505       -0.65921        8.76697
C        -10.03818       -0.52882        7.50539
N        -10.17485        0.58315        6.73643
C         -9.73368        0.49148        5.34435
C         -8.49923       -0.42950        5.20268
H         -7.10830       -2.73921      -11.47846
H         -3.31363       -5.26235       -9.38766
H         -6.45839       -4.28102      -13.82748
H         -5.27781       -1.40668       -5.62271
H         -6.76428        0.41288       -7.43515
H         -8.61791        1.90341       -6.44380
H        -10.34856        1.86344       -4.59334
H        -11.87945        1.16592       -2.89588
H        -13.24658       -0.24016       -1.28637
H        -13.20033       -2.53976       -0.20974
H        -14.57205       -4.28542        0.26099
H        -12.66019       -7.46178        2.88929
H        -10.25372       -6.39675       -0.32580
H         -8.80749       -5.81701        0.47875
H         -9.88178       -4.19211       -1.03968
H         -9.68475       -3.55374        0.62338
H        -10.32077       -4.52326        3.12530
H         -6.25628       -5.69855        5.66290
H         -9.30607       -4.49804        6.14988
H         -7.77054       -2.67920        4.23871
H         -8.71029       -3.56329        8.10468
H        -11.16098        0.05064        9.32125
H        -10.91289        1.25582        6.92576
H         -9.48587        1.49534        4.98188
H        -10.55807        0.10808        4.73238
H         -7.63691        0.02252        5.71253
H         -8.24125       -0.51031        4.14089
