102

C        -10.27362       -6.40405      -10.27068
C         -9.24810       -6.94910       -9.57207
C         -8.49260       -8.05906      -10.05599
N         -7.88604       -8.96735      -10.44615
C         -8.88156       -6.48148       -8.27905
N         -8.56548       -6.07657       -7.23619
C        -10.80940       -6.87856      -11.57511
C        -12.12330       -6.42063      -11.70290
C        -12.92271       -6.64534      -12.81299
C        -12.33826       -7.32007      -13.90501
C        -11.00328       -7.74597      -13.80580
C        -10.22087       -7.54897      -12.64018
S        -10.48060       -8.48760      -15.27641
C        -11.98181       -8.24482      -16.00767
C        -12.89223       -7.62998      -15.19208
Br       -12.36073       -8.75681      -17.76846
C        -12.47490       -5.53173      -10.58881
O        -13.56264       -5.02819      -10.40581
C        -11.20157       -5.34916       -9.81844
C        -10.96618       -4.27152       -9.05880
C        -11.89752       -3.18040       -8.83428
C        -12.40534       -2.85272       -7.64009
C        -13.21909       -1.68982       -7.38019
C        -13.46369       -1.48935       -6.07753
C        -12.88894       -2.50362       -5.20958
S        -12.13471       -3.76740       -6.18419
C        -12.81651       -2.48269       -3.86595
C        -13.18618       -1.39470       -2.98156
C        -12.60312       -1.48058       -1.77301
C        -11.76445       -2.65647       -1.61944
S        -12.08939       -3.77141       -2.91776
C        -10.85452       -2.82728       -0.64231
C         -9.91984       -3.95852       -0.42097
C         -9.51017       -4.26088        0.87770
C         -8.67785       -5.36245        1.19466
C         -8.27806       -6.20371        0.10263
C         -8.56501       -5.85590       -1.22606
C         -9.35148       -4.69832       -1.45790
C         -7.97737       -6.76173       -2.20365
C         -7.32660       -7.82657       -1.59231
S         -7.44391       -7.72410        0.10806
C         -6.68919       -8.83882       -2.34102
C         -6.72349       -8.77994       -3.73477
C         -7.36835       -7.73324       -4.37161
C         -7.99141       -6.72784       -3.62461
C         -8.19876       -5.57510        2.59488
S         -6.54756       -6.06025        2.82621
C         -6.62931       -6.11834        4.53805
C         -7.85855       -5.65128        4.95371
C         -8.75846       -5.32669        3.84631
C        -10.04918       -4.80982        4.06579
C        -10.32861       -4.57371        5.42820
F        -11.49860       -3.98925        5.73339
C         -9.45166       -4.90575        6.49159
F         -9.82978       -4.62915        7.75028
C         -8.19720       -5.50096        6.30758
C         -5.46937       -6.58823        5.22514
C         -4.98425       -5.96230        6.30890
C         -3.86168       -6.41606        7.06456
C         -3.42447       -5.89595        8.27313
C         -2.30102       -6.58580        8.84529
C         -1.88754       -7.59576        7.98088
S         -2.84693       -7.71543        6.58674
N         -0.84947       -8.43689        8.14736
C         -0.20206       -8.23303        9.29632
C         -0.51556       -7.29069       10.27291
C         -1.58490       -6.40322       10.06585
C         -1.91518       -5.30579       11.05234
C         -3.25789       -5.49599       11.74716
C          0.44326       -7.30373       11.43226
C          1.12436       -8.67601       11.44294
S          1.21967       -9.21183        9.72018
H        -13.93533       -6.25376      -12.85528
H         -9.18379       -7.86759      -12.63784
H        -13.90512       -7.38536      -15.48886
H         -9.99935       -4.10791       -8.58907
H        -12.13859       -2.58110       -9.70829
H        -13.56060       -1.03213       -8.16955
H        -14.03485       -0.64975       -5.70558
H        -13.80687       -0.56507       -3.28787
H        -12.70946       -0.73475       -0.99771
H        -10.77209       -2.04292        0.10872
H         -9.83520       -3.59622        1.67287
H         -9.52150       -4.41912       -2.49318
H         -6.18351       -9.66069       -1.84235
H         -6.24675       -9.56033       -4.32310
H         -7.39358       -7.69167       -5.45699
H         -8.49229       -5.91728       -4.15112
H        -10.78811       -4.57240        3.31551
H         -7.58308       -5.76598        7.15662
H         -4.98222       -7.46815        4.81105
H         -5.46597       -5.05816        6.67211
H         -3.91684       -5.05703        8.75034
H         -1.91173       -4.34738       10.51899
H         -1.13771       -5.22014       11.81837
H         -4.09148       -5.50077       11.03888
H         -3.43439       -4.67549       12.45089
H         -3.28862       -6.43730       12.30461
H         -0.06710       -7.14473       12.38715
H          1.18554       -6.50845       11.29358
H          0.50925       -9.40088       11.98758
H          2.11224       -8.64049       11.90993
