97

C         -8.52737       -1.32363       -2.83236
C         -7.87160       -1.36233       -4.01633
C         -8.04081       -2.41335       -4.95875
N         -8.16236       -3.26742       -5.73313
C         -6.99037       -0.32698       -4.45910
N         -6.28034        0.51353       -4.81022
C         -9.56620       -2.29089       -2.35465
C        -10.21599       -1.74132       -1.24817
C        -11.24905       -2.36018       -0.55178
C        -11.66503       -3.63212       -0.99594
C        -11.01223       -4.20485       -2.09769
C         -9.95402       -3.55433       -2.78490
S        -11.67051       -5.75918       -2.46867
C        -12.78639       -5.65888       -1.20688
C        -12.69092       -4.49887       -0.48659
Br       -14.03197       -7.00598       -0.83158
C         -9.63047       -0.44920       -0.88591
O        -10.02742        0.25906        0.01586
C         -8.46504       -0.24480       -1.81648
C         -7.52346        0.69142       -1.61260
C         -7.59632        1.63215       -0.55459
S         -8.37444        3.11518       -0.83635
C         -8.05255        3.70093        0.75156
C         -7.37910        2.74559        1.51042
C         -7.10859        1.56128        0.73398
C         -6.41067        0.40562        1.21751
N         -5.83979       -0.53907        1.57701
C         -6.93619        2.86577        2.93643
F         -7.28303        4.03611        3.52502
F         -7.46005        1.87491        3.70120
F         -5.58586        2.76623        3.03661
C         -8.51974        4.99560        1.12804
C         -8.62207        6.01307        0.25268
C         -9.11064        7.30430        0.62024
S         -8.88459        7.89658        2.22320
C         -9.67030        9.40053        1.93523
C        -10.06755        9.47197        0.61150
C         -9.74047        8.27197       -0.14446
C        -10.03441        8.11377       -1.51041
C        -10.68769        9.23538       -2.05654
F        -11.02672        9.19147       -3.35563
C        -10.99984       10.40943       -1.32118
F        -11.62043       11.41667       -1.95673
C        -10.69131       10.59096        0.03770
C         -9.74518       10.27676        3.05810
C        -10.78027       11.09960        3.26071
C        -10.87973       11.98003        4.40554
C        -12.02965       12.47043        4.89087
C        -12.12378       13.35045        6.02777
C        -13.38246       13.68781        6.34241
C        -14.38910       13.09887        5.47504
S        -13.61253       12.08353        4.26521
C        -15.72179       13.27830        5.55025
C        -16.43059       14.10139        6.51113
C        -17.76447       14.08543        6.37012
C        -18.22488       13.23530        5.29586
S        -16.87009       12.52084        4.45252
C        -19.51476       13.01990        4.98615
C        -19.98673       12.14319        3.93629
C        -19.73231       10.81174        3.89609
C        -20.20283       10.33844        2.62074
C        -20.07749        9.13212        2.04003
C        -20.56897        9.02882        0.68167
C        -20.51647        8.01008       -0.19619
C        -21.11220        8.42522       -1.47838
C        -21.57704        9.69053       -1.35427
C        -21.22752       10.13705       -0.02704
C        -21.37572       11.33584        0.56588
C        -20.82615       11.45824        1.90312
C        -20.70571       12.52624        2.70915
C        -21.25666        7.64189       -2.68220
C        -20.40347        6.67947       -3.05592
H        -11.70663       -1.87826        0.30845
H         -9.48531       -4.07323       -3.61232
H        -13.31889       -4.26114        0.36388
H         -6.63982        0.78323       -2.23110
H         -8.79637        5.13060        2.17085
H         -8.34521        5.88087       -0.78918
H         -9.80647        7.25097       -2.12128
H        -10.92627       11.52166        0.53257
H         -8.96626       10.20032        3.81482
H        -11.61595       11.11338        2.56761
H         -9.94079       12.25388        4.88362
H        -11.25295       13.69403        6.56866
H        -13.62420       14.33773        7.16990
H        -15.92849       14.67689        7.27492
H        -18.44215       14.64117        7.00288
H        -20.29748       13.52727        5.54411
H        -19.18339       10.22960        4.61825
H        -19.59016        8.29306        2.51809
H        -20.09091        7.03495       -0.02068
H        -22.06873       10.28916       -2.10303
H        -21.82898       12.18675        0.07618
H        -21.02253       13.53336        2.48854
H        -22.10344        7.87499       -3.32397
H        -19.52378        6.42797       -2.47159
H        -20.55724        6.13234       -3.98028
