110

C         -6.04873       -1.71620       -2.13366
C         -4.92546       -2.32379       -2.58484
C         -4.95918       -3.52907       -3.34607
N         -4.98692       -4.51090       -3.96465
C         -3.61657       -1.85019       -2.26820
N         -2.55925       -1.45918       -2.00742
C         -7.45491       -2.21820       -2.27303
C         -8.24076       -1.58810       -1.30341
C         -9.61155       -1.76514       -1.16224
C        -10.24726       -2.66018       -2.04950
C         -9.46755       -3.32383       -3.01074
C         -8.06893       -3.10889       -3.14680
S        -10.43906       -4.39218       -3.96286
C        -11.84543       -3.95530       -3.13820
C        -11.63288       -3.02789       -2.15426
Br       -13.53120       -4.67087       -3.53295
C         -7.40807       -0.71027       -0.47631
O         -7.64394       -0.37055        0.66573
C         -6.13261       -0.53553       -1.23987
C         -5.34309        0.55514       -1.14203
N         -5.58986        1.70451       -0.41215
C         -4.64770        2.66109       -0.16001
O         -3.50269        2.74317       -0.57042
C         -5.25712        3.66572        0.72115
C         -6.55087        3.35773        0.83267
C         -6.80847        2.24023       -0.09498
O         -7.89465        2.03081       -0.61327
C         -7.55022        4.00725        1.66397
C         -8.33226        5.04567        1.14954
C         -9.28392        5.62430        1.97997
C         -9.46935        5.18377        3.30899
C         -8.70143        4.15443        3.82102
C         -7.73909        3.56728        2.99268
C        -10.51489        5.96632        3.93017
C        -10.99855        6.91247        3.00435
C        -10.26103        6.76287        1.66798
C         -9.50317        8.07236        1.30264
C         -8.41817        8.51153        2.29219
C        -11.24173        6.36176        0.52653
C        -11.96990        5.02337        0.69825
C        -11.99211        7.82250        3.35332
C        -12.53357        7.77142        4.64667
C        -12.04134        6.81668        5.56252
C        -11.03458        5.91068        5.20998
C        -13.56562        8.70908        5.12204
C        -14.46474        9.32712        4.34172
C        -15.47049       10.23323        4.87068
C        -16.07971       11.21044        4.18127
C        -17.07787       12.10628        4.71811
C        -17.51342       13.02323        3.83894
C        -16.89249       12.92296        2.52724
S        -15.72192       11.60268        2.52337
C        -17.12347       13.69102        1.44394
C        -18.03468       14.81489        1.33588
C        -18.01024       15.42358        0.13883
C        -17.07988       14.83208       -0.79993
S        -16.29873       13.44321       -0.09785
C        -16.85284       15.27627       -2.04650
C        -15.91490       14.71425       -2.99750
C        -16.27483       14.23933       -4.21483
C        -15.07281       13.74087       -4.84063
C        -14.88957       13.13216       -6.02562
C        -13.53242       12.72946       -6.33392
C        -13.03123       12.08745       -7.40477
C        -11.57978       11.89553       -7.23993
C        -11.19530       12.46386       -6.07274
C        -12.38897       12.98081       -5.44331
C        -12.57234       13.59254       -4.25863
C        -13.93782       13.97002       -3.93649
C        -14.45528       14.55243       -2.84276
C        -10.66189       11.28323       -8.17147
C        -11.00188       10.30448       -9.02045
H        -10.16713       -1.21437       -0.40759
H         -7.53679       -3.63611       -3.93062
H        -12.41669       -2.62377       -1.52436
H         -4.39323        0.59572       -1.66548
H         -4.70381        4.45636        1.19615
H         -8.21400        5.38261        0.12433
H         -8.84215        3.80123        4.83700
H         -7.14641        2.74496        3.39025
H        -10.21944        8.89832        1.20236
H         -9.02679        7.95944        0.32019
H         -8.82944        8.71472        3.28549
H         -7.94031        9.43158        1.93895
H         -7.62944        7.75946        2.39285
H        -10.69482        6.31402       -0.42419
H        -12.00334        7.14271        0.40433
H        -11.27281        4.18034        0.73960
H        -12.63127        4.84794       -0.15762
H        -12.58873        5.00545        1.60023
H        -12.32256        8.56302        2.63146
H        -12.44917        6.76941        6.57037
H        -10.67561        5.18703        5.93339
H        -13.56269        8.89860        6.19289
H        -14.47053        9.15450        3.26766
H        -15.73545       10.08225        5.91505
H        -17.42992       12.03405        5.73862
H        -18.25963       13.76539        4.08539
H        -18.66723       15.14153        2.14940
H        -18.61648       16.28380       -0.11082
H        -17.40584       16.13766       -2.41367
H        -17.26289       14.19689       -4.64197
H        -15.69412       12.92830       -6.71905
H        -13.58531       11.75427       -8.26769
H        -10.20097       12.51314       -5.66023
H        -11.76737       13.79270       -3.56399
H        -13.91430       14.85579       -1.95997
H         -9.63502       11.64236       -8.16339
H        -12.00517        9.89110       -9.05278
H        -10.26848        9.87631       -9.69595
