111

C         -0.34027        2.58277        3.67869
C         -0.19521        1.24293        3.53323
C          0.68074        0.45657        4.32570
N          1.40286       -0.19212        4.96270
C         -0.90548        0.47768        2.57080
N         -1.47178       -0.18090        1.78996
C          0.37436        3.43772        4.69604
C         -0.07812        4.75179        4.56563
C          0.35644        5.82016        5.34530
C          1.32052        5.55843        6.33939
C          1.79109        4.24619        6.48381
C          1.33387        3.17427        5.67210
S          2.96262        4.14667        7.75218
C          2.83032        5.79496        8.09217
C          1.94006        6.44664        7.28140
Br         3.80553        6.64635        9.44528
C         -1.06218        4.87093        3.49111
O         -1.60385        5.90852        3.16903
C         -1.21881        3.49378        2.90821
C         -2.04962        3.27172        1.88060
C         -2.86639        4.26734        1.20931
C         -4.19916        4.20362        1.08854
C         -5.00519        5.12603        0.32620
C         -6.26197        4.69652        0.13319
C         -6.52689        3.40094        0.73617
S         -5.18621        2.95302        1.79244
C         -7.55004        2.57230        0.45838
C         -8.60457        2.77912       -0.51393
C         -9.28063        1.65910       -0.81645
C         -8.81794        0.48687       -0.09602
S         -7.68410        0.95836        1.13866
C         -9.15901       -0.77007       -0.42423
C         -8.61472       -1.96852        0.13949
O         -8.52599       -3.11846       -0.65259
C         -7.83306       -4.02394        0.07977
C         -7.27698       -5.29326       -0.06477
C         -6.62862       -5.48976        1.15351
O         -6.88140       -4.42859        2.01724
C         -7.59236       -3.53179        1.28884
C         -8.11159       -2.24507        1.41431
C         -5.82731       -6.62473        1.56074
S         -5.36274       -7.83636        0.45130
C         -4.66836       -8.85633        1.65269
C         -4.86328       -8.27231        2.91072
C         -5.27803       -6.88468        2.80161
C         -5.17842       -5.93757        3.96943
C         -4.21159       -6.48741        5.02612
C         -4.65749       -7.88605        5.44116
C         -4.65698       -8.89405        4.27349
O         -5.70620       -9.83100        4.52721
C         -3.91021      -10.07975        1.23534
C         -2.74732      -10.41902        1.96725
C         -1.84878      -11.42738        1.56771
C         -2.03233      -12.09918        0.36959
C         -3.14519      -11.77073       -0.38416
C         -4.09472      -10.82326        0.05419
N         -5.11192      -10.75033       -0.93073
C         -6.50526      -10.87632       -0.56237
C         -4.73879      -11.44533       -2.09010
O         -5.34523      -11.49067       -3.15149
C         -3.50500      -12.26399       -1.75804
C         -3.90929      -13.72768       -1.93139
C         -4.73692      -14.34066       -0.78256
O         -5.81484      -13.93771       -0.37639
N         -4.06374      -15.49014       -0.35378
C         -4.67313      -16.49172        0.48267
C         -2.86868      -15.67157       -1.05931
C         -1.89809      -16.64237       -0.90755
C         -0.77172      -16.58793       -1.74563
C         -0.71080      -15.62259       -2.77536
C         -1.69664      -14.65001       -2.91357
C         -2.74233      -14.66612       -2.01527
C          0.32122      -17.54839       -1.54066
C          1.60466      -17.28404       -1.82432
H         -0.04161        6.81907        5.18652
H          1.75408        2.19253        5.84866
H          1.72634        7.50719        7.34769
H         -2.19450        2.28164        1.45560
H         -2.32268        5.08710        0.74481
H         -4.60772        6.04446       -0.08301
H         -6.99033        5.23758       -0.45302
H         -8.78770        3.72954       -0.99485
H        -10.05937        1.61182       -1.56561
H         -9.81787       -0.92472       -1.27502
H         -7.30573       -5.94935       -0.92030
H         -8.06807       -1.59714        2.27506
H         -6.16829       -5.78156        4.41195
H         -4.80033       -4.96377        3.63409
H         -4.18912       -5.82356        5.89796
H         -3.18826       -6.52817        4.62888
H         -5.65482       -7.82336        5.89662
H         -3.99979       -8.26356        6.23460
H         -3.72141       -9.44703        4.32641
H         -6.52885       -9.40382        4.22598
H         -2.45960       -9.85366        2.84716
H         -0.97645      -11.63993        2.18354
H         -1.30662      -12.83258        0.03219
H         -6.61239      -11.08324        0.50556
H         -6.94698      -11.72188       -1.10662
H         -7.05163       -9.97959       -0.85272
H         -2.71519      -11.96518       -2.45899
H         -4.50272      -13.87360       -2.84384
H         -5.47909      -16.05311        1.07721
H         -3.93812      -16.94928        1.14870
H         -5.11169      -17.25575       -0.16813
H         -1.97822      -17.39529       -0.13204
H          0.11637      -15.61687       -3.48062
H         -1.63897      -13.90930       -3.70587
H          0.05797      -18.50463       -1.09489
H          1.92920      -16.33302       -2.23471
H          2.37676      -18.02061       -1.63169
