125

C          0.18521        0.52012       -0.94038
C         -0.36279       -0.65685       -1.32076
C          0.41945       -1.79121       -1.62563
N          1.07117       -2.72230       -1.87939
C         -1.78409       -0.84745       -1.37005
N         -2.93193       -1.00378       -1.41909
C          1.63076        0.82468       -0.70174
C          1.70010        1.95430        0.12129
C          2.88343        2.57869        0.49175
C          4.09045        2.03555        0.00146
C          4.03764        0.88798       -0.80755
C          2.81256        0.26577       -1.17648
S          5.62956        0.38822       -1.26832
C          6.34652        1.67574       -0.44405
C          5.44214        2.49123        0.18047
Br         8.19733        1.96241       -0.38843
C          0.35108        2.43544        0.45573
O          0.05925        3.17393        1.37081
C         -0.55214        1.72561       -0.50247
C         -1.64416        2.26621       -1.06072
C         -2.16009        3.61561       -0.81477
C         -3.09422        3.85107        0.19865
C         -3.63173        5.12807        0.31442
C         -3.20695        6.17638       -0.53247
C         -2.27962        5.94923       -1.53377
C         -1.76324        4.65971       -1.67869
C         -3.90661        7.38759       -0.17704
C         -4.80762        7.10894        0.86898
C         -4.71972        5.63615        1.28332
C         -6.07927        4.91769        1.05954
C         -6.60443        4.91922       -0.38081
C         -4.18569        5.46959        2.73580
C         -5.03478        6.03984        3.86830
C         -5.66877        8.08599        1.34426
C         -5.58664        9.37773        0.81600
C         -4.65930        9.65581       -0.20700
C         -3.82075        8.65976       -0.71537
C         -6.50892       10.43494        1.23881
C         -7.00485       10.54713        2.48066
C         -7.93551       11.62597        2.80414
C         -9.32367       11.51627        2.65669
C        -10.18251       12.64733        2.87326
N        -11.47409       12.54844        2.55013
C        -11.98168       11.36358        2.12157
C        -11.18093       10.25696        2.01823
N         -9.84841       10.32827        2.26906
C        -11.68246        8.97988        1.61548
N        -12.12243        7.95518        1.29843
C        -13.35268       11.38749        1.73238
N        -14.45728       11.39054        1.36593
C         -9.74363       13.89116        3.37955
C         -8.32989       14.01291        3.51625
C         -7.40847       12.87841        3.20447
N         -6.11319       13.20798        3.33691
S         -6.05753       14.78994        3.81470
N         -7.68012       15.12386        3.89991
C        -10.68173       15.02850        3.77721
C        -12.15730       14.75309        3.70576
O        -12.79288       14.07006        4.49325
O        -12.69376       15.34540        2.60894
C        -11.81450       16.35260        2.08493
C        -10.53306       16.27798        2.90291
C        -10.22382       17.52895        3.74107
C        -10.50510       18.88259        3.08839
C        -11.76092       18.94337        2.22958
C        -12.57861       17.67435        2.16109
O        -13.40078       17.82568        0.99527
C        -12.89456       18.78480        0.16631
O        -13.38755       19.06314       -0.91649
C        -11.66498       19.43679        0.77886
C        -10.48534       19.16933       -0.11430
C        -10.27040       19.75922       -1.31941
C         -9.10013       19.13435       -1.88843
C         -8.51412       19.26759       -3.09177
C         -7.38092       18.39675       -3.34628
C         -6.63663       18.21454       -4.45352
C         -5.62279       17.17098       -4.20701
C         -5.71885       16.75975       -2.92295
C         -6.83362       17.46537       -2.34751
C         -7.40421       17.35220       -1.13631
C         -8.57740       18.16889       -0.92064
C         -9.40736       18.21298        0.12761
C         -4.63249       16.65661       -5.12166
C         -4.80892       16.58892       -6.44456
H          2.86880        3.47414        1.10608
H          2.84017       -0.59759       -1.83352
H          5.71419        3.37342        0.74813
H         -2.17496        1.76800       -1.86839
H         -3.40423        3.05495        0.86790
H         -1.97407        6.74252       -2.20779
H         -1.05557        4.47042       -2.48323
H         -6.85259        5.38234        1.68473
H         -6.00308        3.87384        1.38736
H         -6.80319        5.93322       -0.74180
H         -7.54720        4.36420       -0.43403
H         -5.90585        4.43772       -1.07147
H         -3.18803        5.92366        2.81551
H         -4.04520        4.40039        2.94437
H         -5.11028        7.12850        3.81629
H         -4.56277        5.81187        4.83055
H         -6.04047        5.61237        3.88342
H         -6.40989        7.83671        2.09618
H         -4.59113       10.65806       -0.62408
H         -3.12972        8.88672       -1.51994
H         -6.77677       11.15021        0.46528
H         -6.75137        9.86649        3.28749
H        -10.47013       15.26402        4.82943
H        -11.61213       16.07931        1.04145
H         -9.69906       16.13270        2.21160
H         -9.16241       17.50753        4.02161
H        -10.77812       17.48671        4.68637
H         -9.62539       19.24644        2.55095
H        -10.62023       19.60726        3.90726
H        -12.41918       19.67821        2.72283
H        -13.26309       17.64070        3.01719
H        -11.84686       20.52102        0.79388
H        -10.89319       20.49077       -1.81020
H         -8.87540       19.94353       -3.85484
H         -6.75453       18.72756       -5.39454
H         -5.12546       16.01039       -2.42554
H         -7.05161       16.66735       -0.37816
H         -9.26077       17.62863        1.00749
H         -3.71044       16.27483       -4.68678
H         -5.72528       16.92358       -6.92113
H         -4.04013       16.16960       -7.08453
