86

C        -14.61720        4.88320        0.08675
C        -15.09761        4.13925        1.11229
C        -16.47944        4.07330        1.44264
N        -17.60253        3.99965        1.71930
C        -14.29619        3.33837        1.97619
N        -13.67165        2.67951        2.70379
C        -15.41899        5.77376       -0.81315
C        -14.57343        6.32948       -1.77629
C        -15.01364        7.14647       -2.81806
C        -16.39733        7.43813       -2.89224
C        -17.23718        6.94383       -1.88563
C        -16.76574        6.11994       -0.83471
S        -18.86893        7.46112       -2.11295
C        -18.48615        8.22566       -3.56626
C        -17.15151        8.17474       -3.87266
Br       -19.77185        9.05175       -4.64960
C        -13.17853        5.92339       -1.53179
O        -12.20356        6.30734       -2.14201
C        -13.21675        4.96726       -0.38043
C        -12.12262        4.31174        0.02866
N        -10.80728        4.36648       -0.38543
C         -9.75643        3.59736        0.05789
S         -9.97066        2.37669        1.27610
C         -8.36758        1.87556        1.20306
N         -7.92705        0.75956        1.99587
O         -6.73957        0.42407        1.85474
O         -8.73376        0.21036        2.75138
C         -7.60710        2.64213        0.34344
C         -8.40909        3.63312       -0.32485
C         -7.80671        4.54386       -1.26384
C         -8.39963        5.07639       -2.34209
C         -7.74959        5.96060       -3.27991
C         -8.35747        6.54854       -4.33178
C         -9.83955        6.50374       -4.60609
C         -7.55483        7.34467       -5.32782
N         -7.11478        6.46056       -6.39093
C         -7.81592        6.18188       -7.53753
C         -7.51914        5.27045       -8.47412
C         -8.38478        5.05372       -9.61978
C         -8.50281        3.92715      -10.33880
C         -9.51227        3.72572      -11.35460
C         -9.70562        2.43454      -11.66781
C         -8.83415        1.52733      -10.93848
S         -7.60580        2.46117      -10.06974
C         -8.97881        0.19642      -10.78936
C        -10.07906       -0.62907      -11.25888
C        -10.20095       -1.77972      -10.57347
C         -9.18547       -1.94415       -9.54910
S         -7.91352       -0.77425       -9.77257
C         -9.24435       -2.82051       -8.53402
C         -8.26715       -2.89831       -7.51131
S         -6.95147       -4.02997       -7.50776
C         -6.37509       -3.52964       -5.94168
C         -7.17482       -2.53127       -5.51283
C         -8.19703       -2.17894       -6.36786
O         -9.01991       -1.16747       -5.95850
C         -8.42075       -0.88299       -4.74481
N         -9.02687        0.17393       -4.00239
O         -9.33327       -0.08285       -2.83045
O         -9.14627        1.26609       -4.56938
C         -7.32574       -1.68275       -4.40524
H        -14.31612        7.52436       -3.56052
H        -17.48350        5.78561       -0.09728
H        -16.72295        8.61970       -4.76242
H        -12.22024        3.59173        0.82269
H        -10.65716        5.06445       -1.11687
H         -6.54646        2.48187        0.17567
H         -6.75605        4.77500       -1.09139
H         -9.41361        4.78860       -2.58886
H         -6.67783        6.10061       -3.14649
H        -10.42000        6.25799       -3.71779
H        -10.07175        5.76657       -5.37906
H        -10.20530        7.48327       -4.93332
H         -6.67230        7.78167       -4.84720
H         -8.13412        8.18715       -5.72365
H         -6.43613        5.75483       -6.11588
H         -8.72217        6.77789       -7.62767
H         -6.62838        4.65654       -8.37077
H         -9.05105        5.88220       -9.85229
H        -10.09251        4.54188      -11.76237
H        -10.46088        2.10148      -12.36523
H        -10.77508       -0.31737      -12.02573
H        -10.99816       -2.49476      -10.72906
H        -10.09314       -3.49216       -8.44998
H         -5.51839       -3.99761       -5.47671
H         -6.73901       -1.62273       -3.49940
