107

C         -2.89704        4.95146        2.21119
C         -1.54786        5.05497        2.23312
C         -0.72233        4.37692        3.18686
N         -0.04588        3.85085        3.94364
C         -0.81376        5.91285        1.35744
N         -0.21142        6.60518        0.66203
C         -3.74235        4.18464        3.17803
C         -5.08061        4.52023        2.96477
C         -6.14877        3.98012        3.67452
C         -5.85816        3.04611        4.69155
C         -4.51810        2.70609        4.92776
C         -3.44766        3.25607        4.17430
S         -4.38557        1.56629        6.22065
C         -6.05750        1.53340        6.44806
C         -6.74029        2.33865        5.57679
Br        -6.89465        0.49945        7.76639
C         -5.21188        5.49468        1.87491
O         -6.25225        6.02350        1.54700
C         -3.82810        5.67052        1.30627
C         -3.61025        6.26027        0.12000
C         -4.62186        6.87641       -0.70368
C         -4.86564        6.49361       -1.96604
C         -5.90148        7.11839       -2.70993
O         -6.69955        8.11870       -2.19629
C         -7.60522        8.52550       -3.13878
C         -7.38626        7.77795       -4.27763
C         -6.32646        6.90160       -4.00906
O         -5.79861        6.00760       -4.86281
O         -8.06822        7.87468       -5.43439
C         -8.54788        9.53909       -2.87959
C         -9.70034        9.21576       -2.28215
C        -10.66037       10.22825       -1.95200
C        -11.62420       10.06474       -1.03720
C        -12.57839       11.09354       -0.79138
S        -13.18458       11.27532        0.81361
C        -14.14339       12.66072        0.42857
C        -14.06776       12.92333       -0.92670
C        -13.17025       12.02834       -1.62223
C        -12.93797       12.10210       -3.00511
C        -13.60968       13.16339       -3.62351
F        -13.40110       13.34680       -4.93609
C        -14.49100       14.03633       -2.94538
F        -15.09073       15.01051       -3.64601
C        -14.78543       13.94156       -1.57635
C        -14.83665       13.28941        1.50081
C        -15.05384       14.61109        1.50801
C        -15.75300       15.19816        2.57924
S        -17.42940       15.44692        2.46944
C        -15.25355       15.66060        3.77612
C        -16.25125       16.23983        4.64008
C        -16.15200       16.85487        5.93995
C        -14.75878       16.85340        6.58377
C        -14.34362       17.90173        7.58406
C        -17.37287       17.35291        6.56104
C        -17.39162       18.01494        7.93681
C        -16.83625       19.43902        8.06903
C        -17.48739       16.13747        4.02450
C        -18.65882       16.57836        4.64067
S        -20.21222       16.46737        3.94964
C        -18.64013       17.16767        5.88965
C        -20.00009       17.48495        6.26679
C        -20.95499       17.17384        5.31173
C        -22.36294       17.36925        5.31961
C        -23.06017       17.36736        6.45848
C        -24.44854       17.59136        6.44258
S        -25.64876       16.35306        6.31969
C        -26.97378       17.48487        6.38065
C        -26.45184       18.72442        6.49968
C        -25.07639       18.77843        6.54653
O        -24.50447       20.00921        6.68201
C        -25.65275       20.77339        6.70692
N        -25.42846       22.17608        6.81117
O        -25.92009       22.87766        5.91859
O        -24.80285       22.57233        7.80174
C        -26.85488       20.06705        6.59752
H         -7.17083        4.26899        3.44318
H         -2.44119        2.92670        4.40474
H         -7.81907        2.44113        5.56597
H         -2.62796        6.29705       -0.33921
H         -5.20707        7.66993       -0.23847
H         -4.30966        5.69138       -2.44044
H         -6.27496        6.09192       -5.71065
H         -8.75664        8.56007       -5.35542
H         -8.27238       10.56498       -3.10179
H         -9.93642        8.18406       -2.02557
H        -10.54937       11.16396       -2.49333
H        -11.65527        9.16259       -0.42951
H        -12.31744       11.44473       -3.59435
H        -15.50325       14.61441       -1.13163
H        -15.16143       12.67820        2.34266
H        -14.70835       15.27723        0.72685
H        -14.19812       15.59627        4.00745
H        -14.02721       16.97530        5.77591
H        -14.58763       15.87063        7.03519
H        -14.39093       18.87593        7.08658
H        -13.31812       17.80775        7.94585
H        -14.94842       17.82550        8.48844
H        -16.98045       17.31507        8.67265
H        -18.43420       18.12161        8.25375
H        -15.76304       19.55890        8.09956
H        -17.11796       19.84918        9.04177
H        -17.15717       20.08553        7.25139
H        -20.26761       17.95095        7.20245
H        -22.86964       17.51285        4.35716
H        -22.58702       17.19612        7.42204
H        -27.99860       17.14542        6.32746
H        -27.85134       20.48583        6.59729
