96

C        -20.78555       -4.04871        1.21073
C        -20.24281       -4.73381        2.25256
C        -20.43502       -6.13577        2.45234
N        -20.58619       -7.27227        2.61564
C        -19.38008       -4.13763        3.21906
N        -18.68646       -3.68162        4.02842
C        -21.56745       -4.65813        0.08640
C        -21.64205       -3.73415       -0.95701
C        -22.24347       -3.98900       -2.18618
C        -22.82502       -5.25982       -2.38521
C        -22.79497       -6.18245       -1.32967
C        -22.18232       -5.89585       -0.08231
S        -23.58279       -7.65675       -1.76965
C        -23.92406       -7.08588       -3.32048
C        -23.48475       -5.80759       -3.53828
Br       -24.81925       -8.10366       -4.61328
C        -21.03690       -2.45389       -0.57159
O        -21.00336       -1.46758       -1.27851
C        -20.56182       -2.62340        0.84509
C        -20.06755       -1.60033        1.56127
C        -19.72755       -0.27484        1.05862
C        -18.48338        0.22889        1.12114
C        -18.04040        1.49657        0.58835
C        -16.70310        1.64281        0.58646
C        -15.98972        0.47992        1.09271
S        -17.13925       -0.65543        1.79335
C        -14.67312        0.20777        1.00354
C        -13.62237        1.04867        0.46336
C        -12.44186        0.42190        0.32703
C        -12.47639       -0.97088        0.71570
S        -13.99551       -1.35618        1.46951
C        -11.48906       -1.85468        0.50188
C        -11.61717       -3.29585        0.86518
S        -11.07114       -3.57471        2.60627
C         -9.90468       -4.38300        1.61703
C        -10.48568       -4.18431        0.42579
C        -10.08454       -4.71538       -0.88287
O        -10.38596       -4.28254       -1.98537
O         -9.34575       -5.83440       -0.65343
C         -8.82391       -6.49533       -1.81249
C         -9.85557       -7.41518       -2.39869
C         -9.59903       -8.56437       -3.03610
C        -10.60224       -9.45037       -3.57200
C        -10.10506      -10.62332       -3.99139
C         -8.66885      -10.74692       -3.80337
S         -7.99873       -9.19463       -3.30538
C         -7.94216      -11.87774       -3.87515
C         -8.44491      -13.21286       -4.13668
C         -7.56535      -14.18632       -3.85342
C         -6.30365      -13.69154       -3.34816
S         -6.22208      -11.95441       -3.50424
C         -5.35536      -14.45526       -2.78029
C         -4.14798      -13.98495       -2.11911
C         -4.09486      -13.16702       -1.05475
C         -5.14951      -12.50176       -0.28184
C         -6.26598      -13.07884        0.22287
C         -7.21363      -12.36113        1.00308
N         -7.99919      -11.78444        1.63143
C         -6.50550      -14.48165        0.10173
N         -6.68427      -15.62646        0.03420
C         -4.60460      -11.17050        0.09249
C         -3.21059      -11.23806       -0.01767
C         -2.80804      -12.49148       -0.69155
O         -1.67811      -12.84317       -0.95552
C         -2.35973      -10.21317        0.37342
C         -2.95071       -9.01187        0.83049
C         -4.35180       -8.89858        0.81877
C         -5.20341       -9.97588        0.46799
S         -4.84759       -7.30537        1.27154
C         -3.25969       -6.83574        1.59833
C         -2.33757       -7.81256        1.33367
Br        -2.80793       -5.14149        2.25775
H        -22.25912       -3.22908       -2.96293
H        -22.21698       -6.65568        0.68907
H        -23.61721       -5.27411       -4.47189
H        -19.77544       -1.72957        2.59937
H        -20.51658        0.28194        0.55838
H        -18.73005        2.23310        0.19808
H        -16.20355        2.51414        0.18671
H        -13.77467        2.08613        0.20153
H        -11.54659        0.89347       -0.05454
H        -10.56968       -1.53280        0.02281
H        -12.60765       -3.71328        0.64027
H         -9.00887       -4.95099        1.87529
H         -7.95146       -7.05276       -1.45599
H         -8.47230       -5.76671       -2.55031
H        -10.89122       -7.10621       -2.27902
H        -11.65228       -9.19237       -3.60391
H        -10.72136      -11.41264       -4.39676
H         -9.45234      -13.40850       -4.47623
H         -7.79033      -15.24139       -3.93308
H         -5.48291      -15.53731       -2.75992
H         -3.21910      -14.30380       -2.59310
H         -1.28149      -10.32850        0.30587
H         -6.27956       -9.83563        0.48055
H         -1.27091       -7.69287        1.48274
