94

C         -6.47349       -0.60169        7.42104
C         -6.06352       -1.78802        6.90284
C         -5.18064       -2.67744        7.58541
N         -4.46434       -3.40928        8.12733
C         -6.54092       -2.30341        5.66249
N         -6.93642       -2.75099        4.66852
C         -6.16704       -0.10880        8.80543
C         -7.02872        0.94777        9.09727
C         -7.09032        1.60143       10.32295
C         -6.24504        1.14382       11.35260
C         -5.34478        0.10692       11.06863
C         -5.27022       -0.51245        9.79183
S         -4.40311       -0.29106       12.46351
C         -5.22527        0.83231       13.41863
C         -6.15277        1.56039       12.72378
Br        -4.90721        1.05312       15.25121
C         -7.87843        1.27100        7.95178
O         -8.74141        2.12332        7.96946
C         -7.45666        0.35722        6.83341
C         -7.88034        0.51338        5.56430
C         -8.87079        1.46669        5.07298
C         -9.33769        1.57501        3.81968
C        -10.41272        2.46671        3.43829
C        -10.91509        2.20980        2.22226
C        -10.26700        1.09541        1.54835
S         -8.82680        0.61837        2.45488
C        -10.74338        0.40417        0.49587
C        -12.03040        0.58059       -0.15496
C        -12.47216       -0.54531       -0.74338
C        -11.56028       -1.66471       -0.56758
S         -9.98157       -1.04359       -0.15760
C        -11.94446       -2.95214       -0.62122
C        -11.16877       -4.09534       -0.22427
S        -11.29230       -5.53140       -1.18740
C        -10.14070       -6.40377       -0.25078
C         -9.75519       -5.64903        0.84301
C        -10.35746       -4.35016        0.87892
C        -10.08912       -3.42141        1.93415
C        -10.98560       -3.01143        2.83992
O         -8.82986       -6.12183        1.72328
C         -9.34618       -6.30935        3.03616
C         -9.75664       -7.72242       -0.66219
C         -8.52897       -8.19249       -0.37918
C         -8.05334       -9.47923       -0.76653
S         -9.08317      -10.85052       -0.81440
C         -7.91336      -11.83584       -1.62645
C         -6.67549      -11.21193       -1.56114
C         -6.75860       -9.88686       -1.04303
O         -5.67895       -9.08894       -0.89070
C         -5.45284      -11.82312       -1.99572
N         -4.47780      -12.35333       -2.33696
C         -8.26006      -13.13867       -2.11340
C         -9.43374      -13.47022       -2.67639
C        -10.65226      -12.72117       -3.00815
C        -10.73029      -11.55857       -3.70207
C        -11.96868      -10.92709       -4.00870
N        -12.98177      -10.40548       -4.22816
C         -9.57080      -10.92203       -4.23753
N         -8.63059      -10.41408       -4.68860
C        -11.78722      -13.63429       -2.72241
C        -11.28486      -14.93937       -2.67246
C         -9.80732      -14.92311       -2.71530
O         -9.07111      -15.88549       -2.69700
C        -12.08719      -16.06251       -2.52417
C        -13.48226      -15.85859       -2.39944
C        -13.97572      -14.54359       -2.37235
C        -13.14053      -13.41080       -2.51538
S        -15.68943      -14.52232       -2.15748
C        -15.77435      -16.20668       -2.17353
C        -14.55175      -16.81286       -2.28768
Br       -17.38814      -17.14863       -2.04747
H         -7.79521        2.41351       10.48355
H         -4.53651       -1.29711        9.64946
H         -6.76984        2.33426       13.16483
H         -7.47839       -0.12721        4.78630
H         -9.32606        2.12208        5.81170
H        -10.79820        3.22938        4.10176
H        -11.75179        2.75089        1.80150
H        -12.60168        1.49599       -0.10700
H        -13.43642       -0.64198       -1.22231
H        -12.96406       -3.16444       -0.93706
H         -9.06340       -3.06128        2.01049
H        -12.00859       -3.36976        2.83341
H        -10.68801       -2.31239        3.61452
H         -8.62272       -6.91617        3.58929
H        -10.30243       -6.84327        3.02838
H         -9.43628       -5.36087        3.56969
H        -10.47884       -8.30593       -1.22538
H         -7.81708       -7.54489        0.12173
H         -5.91082       -8.23581       -0.48511
H         -7.52724      -13.92916       -1.93891
H        -11.65254      -17.05823       -2.50570
H        -13.57601      -12.41847       -2.46651
H        -14.41057      -17.88678       -2.30695
