104

C         -5.35446       -4.73065       -3.16585
C         -4.10769       -5.25687       -3.07528
C         -3.81909       -6.61296       -3.39812
N         -3.58001       -7.72375       -3.65519
C         -2.97161       -4.48851       -2.69569
N         -2.04722       -3.86379       -2.38190
C         -6.57472       -5.42419       -3.68607
C         -7.53349       -4.45297       -3.97874
C         -8.81146       -4.72594       -4.45031
C         -9.16956       -6.07757       -4.62688
C         -8.21615       -7.06807       -4.34405
C         -6.91037       -6.76233       -3.87291
S         -8.86355       -8.64524       -4.63619
C        -10.36568       -8.01813       -5.08391
C        -10.41735       -6.65129       -5.04498
Br       -11.82142       -9.08769       -5.57943
C         -7.04558       -3.11199       -3.64663
O         -7.62792       -2.08779       -3.93164
C         -5.74452       -3.31776       -2.92188
C         -5.21933       -2.41028       -2.07855
C         -5.80317       -1.12895       -1.84146
S         -5.41922        0.17942       -2.89150
C         -6.46781        1.24148       -2.06801
C         -7.04367        0.67377       -0.94856
C         -7.96574        1.40354       -0.02619
C         -6.63705       -0.70039       -0.81438
C         -7.07997       -1.56319        0.24141
C         -6.40526       -1.74336        1.38845
C         -6.85596       -2.63986        2.43020
C         -6.02532       -3.15229        3.35028
C         -6.46061       -4.07542        4.37893
C         -5.82292       -4.29473        5.54836
C         -4.58805       -3.52664        5.95048
C         -6.38086       -5.26276        6.57109
N         -5.38072       -6.26757        6.86242
C         -5.23338       -6.96964        8.03094
C         -4.27881       -7.87868        8.27588
C         -4.15713       -8.55609        9.56381
C         -3.36153       -8.06958       10.60454
C         -2.44097       -6.91872       10.69753
O         -2.21856       -6.14699        9.78356
N         -1.91355       -6.91847       11.97830
C         -2.40256       -7.97366       12.70937
O         -2.17744       -8.34869       13.84662
C         -3.32730       -8.69539       11.85270
C         -4.06985       -9.81559       12.17640
C         -4.83361      -10.30625       11.14094
C         -4.86564       -9.72109        9.86804
C         -5.72986      -10.58600        9.04782
O         -5.93860      -10.47918        7.85730
N         -6.20790      -11.56068        9.87195
C         -5.72235      -11.46354       11.13499
O         -5.95982      -12.16549       12.09472
C         -0.97821       -5.99539       12.41251
C         -0.39032       -6.01285       13.61863
C          0.62319       -5.08534       14.05400
C          1.85567       -5.41544       14.46705
C          2.62661       -6.66969       14.51678
C          2.67614       -7.64783       13.57807
C          3.54811       -8.77206       13.67441
N          4.25205       -9.68850       13.74302
C          1.97032       -7.58563       12.34127
N          1.45810       -7.57935       11.29999
C          3.60820       -6.51351       15.63502
C          3.63860       -5.16571       16.00592
C          2.60090       -4.40602       15.28901
O          2.37224       -3.22038       15.40603
C          4.52065       -4.63937       16.94277
C          5.44864       -5.52258       17.53999
C          5.38784       -6.88582       17.21233
C          4.45399       -7.40724       16.28252
S          6.58989       -7.78684       18.06665
C          7.20136       -6.39588       18.79990
C          6.51178       -5.25956       18.47106
Br         8.68073       -6.41038       19.94864
H         -9.51512       -3.91920       -4.63950
H         -6.23720       -7.58285       -3.65124
H        -11.29834       -6.07065       -5.29232
H         -4.34870       -2.62813       -1.46974
H         -6.60150        2.24893       -2.43741
H         -8.05698        2.45767       -0.30989
H         -7.59143        1.36770        1.00188
H         -8.96649        0.96053       -0.05185
H         -8.00563       -2.10565        0.06361
H         -5.47148       -1.20780        1.55483
H         -7.91715       -2.87884        2.45705
H         -4.96650       -2.90481        3.31530
H         -7.38261       -4.61705        4.16927
H         -3.80562       -3.61542        5.18953
H         -4.16193       -3.88932        6.89048
H         -4.83019       -2.46724        6.09020
H         -7.28416       -5.75900        6.19707
H         -6.66310       -4.71104        7.47592
H         -4.77898       -6.54018        6.09067
H         -5.97113       -6.70768        8.78831
H         -3.53947       -8.12428        7.51974
H         -4.04325      -10.27346       13.15868
H         -6.82273      -12.29879        9.56615
H         -0.69044       -5.25329       11.66762
H         -0.65383       -6.75516       14.36824
H          0.26503       -4.06402       14.20019
H          4.50682       -3.58007       17.18454
H          4.45195       -8.47442       16.09120
H          6.75504       -4.27480       18.85159
