102

C        -13.40877        0.06681        2.61146
C        -14.46994        0.04959        3.46255
C        -15.22950       -1.12276        3.74117
N        -15.86275       -2.06784        3.97661
C        -14.94253        1.20029        4.15520
N        -15.33359        2.13234        4.72659
C        -12.86762       -1.11384        1.85819
C        -11.81141       -0.68717        1.05439
C        -11.08444       -1.50624        0.19450
C        -11.43091       -2.87041        0.13900
C        -12.47372       -3.32703        0.95702
C        -13.20148       -2.46589        1.82298
S        -12.71977       -5.02610        0.75315
C        -11.48518       -5.13323       -0.39280
C        -10.87331       -3.93546       -0.64654
Br       -10.99977       -6.73629       -1.23092
C        -11.55031        0.73828        1.23816
O        -10.64598        1.33089        0.68776
C        -12.57544        1.24158        2.22053
C        -12.63834        2.53503        2.58362
C        -11.74965        3.53130        2.08346
S        -12.21594        4.46931        0.71386
C        -10.73876        5.37975        0.67404
C         -9.94595        5.01499        1.75488
C        -10.51741        3.94184        2.54403
C         -9.89697        3.37663        3.66724
C         -8.64471        3.95644        3.93552
F         -7.94621        3.47888        4.97821
C         -8.08350        5.01803        3.17950
F         -6.87473        5.48560        3.53085
C         -8.71565        5.61400        2.07605
C        -10.58376        6.34978       -0.37216
C         -9.37066        6.67994       -0.83982
C         -9.09387        7.77695       -1.73787
C         -7.95271        8.50189       -1.72898
C         -6.78162        8.26612       -0.80318
C         -7.75439        9.65504       -2.68731
N         -8.17856       10.88854       -2.05549
C         -7.39825       11.74459       -1.32298
C         -7.79151       12.86289       -0.69920
C         -6.87653       13.67624        0.08160
C         -7.20243       14.47670        1.10818
C         -6.23637       15.15844        1.94052
C         -6.73786       15.55208        3.12139
C         -8.14243       15.22041        3.29027
S         -8.81284       14.69250        1.74175
C         -8.82801       15.16861        4.44796
C         -8.29700       15.35716        5.78614
C         -9.10896       14.90362        6.75627
C        -10.34749       14.34835        6.25477
S        -10.51287       14.67859        4.54732
C        -11.23635       13.64193        6.97426
C        -12.43379       13.00218        6.44387
C        -12.47197       12.05533        5.49037
C        -13.74973       11.78954        4.75358
O        -14.88389       12.01511        5.11852
C        -13.33321       11.25568        3.43812
C        -14.15902       10.96185        2.36669
C        -13.56304       10.55291        1.16602
C        -12.14095       10.50975        1.05963
C        -11.56028       10.16099       -0.16701
C        -12.36621        9.83462       -1.25264
C        -13.74967        9.82799       -1.14576
C        -14.34859       10.19414        0.05916
F        -11.79950        9.51240       -2.42262
C        -11.33383       10.80356        2.17504
C        -11.93645       11.12538        3.38052
C        -11.41218       11.36511        4.74938
C        -10.30852       10.78465        5.27761
C        -10.09607       10.73287        6.68714
N         -9.94512       10.65142        7.83789
C         -9.36572       10.05802        4.49436
N         -8.60057        9.46649        3.85962
H        -10.27741       -1.09800       -0.40926
H        -13.98807       -2.90557        2.42332
H        -10.06124       -3.80776       -1.35267
H        -13.36434        2.91769        3.28728
H        -10.29110        2.57818        4.27881
H         -8.25075        6.44899        1.57432
H        -11.47429        6.85059       -0.74509
H         -8.50293        6.12166       -0.50930
H         -9.89420        8.05169       -2.42263
H         -6.85526        7.35038       -0.21371
H         -6.68105        9.09419       -0.09498
H         -5.85383        8.18611       -1.37936
H         -8.34197        9.50413       -3.59975
H         -6.70686        9.71709       -3.00650
H         -9.15878       11.13169       -2.16266
H         -6.36360       11.41361       -1.24698
H         -8.83411       13.16564       -0.74638
H         -5.82285       13.55630       -0.16491
H         -5.20162       15.28258        1.65206
H         -6.14831       16.03818        3.88544
H         -7.31184       15.75814        5.98005
H         -8.85135       14.90282        7.80716
H        -11.08172       13.50798        8.04404
H        -13.36854       13.42160        6.81758
H        -15.23593       11.05794        2.46952
H        -10.48011       10.13056       -0.28671
H        -14.35349        9.54551       -2.00235
H        -15.43479       10.19459        0.12756
H        -10.25212       10.77293        2.06965
