96

C         -9.11638        5.56318        2.75692
C        -10.19906        5.73786        1.96012
C        -10.98249        6.93066        1.96966
N        -11.62326        7.89516        1.98026
C        -10.61634        4.76382        1.00405
N        -10.96547        3.97613        0.22886
C         -8.52343        6.57843        3.68518
C         -7.23411        6.16239        4.01750
C         -6.37293        6.83459        4.87252
C         -6.84444        8.02011        5.45978
C         -8.14049        8.45888        5.14688
C         -9.00042        7.74896        4.26401
S         -8.50187        9.93067        5.97961
C         -6.98762        9.95852        6.72666
C         -6.19530        8.89601        6.39071
Br        -6.44254       11.30975        7.90257
C         -6.92066        4.87251        3.41775
O         -5.82934        4.35210        3.49764
C         -8.18921        4.40354        2.76781
C         -8.41195        3.11102        2.48444
C         -7.47712        2.01344        2.63309
C         -7.66092        0.94857        3.44325
C         -8.76488        0.65149        4.33901
C         -8.78102       -0.53225        4.98079
C         -7.72685       -1.51901        4.79170
C         -6.70489       -1.32199        3.93639
C         -6.59085       -0.05855        3.21989
C         -5.75508        0.36098        2.22635
C         -6.22712        1.73344        1.91006
C         -5.57238        2.63020        1.16095
C         -5.02601       -0.53564        1.32609
C         -4.41226       -1.72113        1.56901
C         -3.75746       -2.24388        2.74791
C         -3.49032       -3.56305        2.81288
C         -3.87873       -4.48846        1.74937
C         -4.48627       -4.07835        0.61779
C         -4.77640       -2.66628        0.44682
C         -5.53139       -2.00852       -0.47736
C         -5.24197       -0.61989       -0.12658
C         -4.59149        0.20587       -0.96751
C         -6.49681       -2.52572       -1.44821
C         -7.35021       -3.56099       -1.22676
C         -7.61902       -4.34727       -0.03055
C         -8.50886       -5.35771       -0.08692
C         -9.23999       -5.67809       -1.30753
C         -9.10617       -4.94505       -2.42770
C         -8.16243       -3.84066       -2.43181
C         -7.86610       -2.95667       -3.40576
C         -6.94589       -1.99315       -2.76955
C         -6.77797       -0.76493       -3.28287
C         -8.47413       -2.88106       -4.72175
C         -8.47012       -3.81433       -5.68779
C         -9.15146       -3.84560       -7.01080
C         -9.71085       -2.80522       -7.68047
C        -10.33739       -2.94254       -8.95342
N        -10.85511       -3.04108       -9.98537
C         -9.71546       -1.46782       -7.18937
N         -9.73077       -0.37343       -6.80041
C         -9.05466       -5.26326       -7.49997
C         -8.29034       -5.99734       -6.59275
C         -7.79875       -5.14664       -5.51125
O         -6.98410       -5.50436       -4.68745
C         -8.03000       -7.36074       -6.69367
C         -8.54960       -8.04440       -7.81051
C         -9.28941       -7.31761       -8.75407
C         -9.55869       -5.92955       -8.61276
S         -9.79880       -8.33416      -10.05610
C         -9.07448       -9.69258       -9.36442
C         -8.44994       -9.42993       -8.17517
Br        -9.12066      -11.39169      -10.15090
H         -5.38667        6.43382        5.09222
H         -9.99972        8.13220        4.09276
H         -5.19553        8.73374        6.77665
H         -9.39117        2.76866        2.15735
H         -9.57515        1.35901        4.46044
H         -9.60068       -0.80042        5.64010
H         -7.79736       -2.44524        5.35464
H         -5.96494       -2.09648        3.82670
H         -4.58148        2.43870        0.77924
H         -5.95910        3.62484        0.97968
H         -3.47223       -1.56245        3.54202
H         -2.98288       -3.98120        3.67709
H         -3.67113       -5.54264        1.90717
H         -4.77355       -4.78070       -0.15654
H         -4.06909        1.08881       -0.62974
H         -4.39613       -0.06848       -1.99780
H         -7.14810       -4.09088        0.90939
H         -8.73227       -5.94508        0.79749
H         -9.91991       -6.52270       -1.27984
H         -9.67290       -5.18126       -3.31727
H         -6.27766        0.03455       -2.76494
H         -7.22455       -0.46334       -4.22521
H         -8.98383       -1.93374       -4.85145
H         -7.44664       -7.87105       -5.93130
H        -10.14912       -5.44874       -9.38250
H         -7.93364      -10.17716       -7.58407
