116

C        -17.74271       -8.48809        9.62981
C        -16.69931       -8.00815       10.34972
C        -16.02257       -8.77325       11.35189
N        -15.46829       -9.38185       12.16138
C        -16.12325       -6.71712       10.15052
N        -15.62613       -5.68655        9.98757
C        -18.30753       -9.87676        9.72638
C        -19.19314      -10.07725        8.67138
C        -19.87875      -11.26420        8.42530
C        -19.68151      -12.33404        9.32169
C        -18.81732      -12.14299       10.40909
C        -18.12385      -10.92292       10.63052
S        -18.73887      -13.56187       11.39380
C        -19.81966      -14.39160       10.39776
C        -20.24965      -13.65348        9.32818
Br       -20.37972      -16.14790       10.72929
C        -19.33510       -8.86315        7.86468
O        -20.05221       -8.78271        6.88633
C        -18.46811       -7.81434        8.50861
C        -18.43572       -6.53925        8.07778
C        -19.13525       -5.98389        6.92757
C        -18.74764       -4.92970        6.18648
C        -19.41520       -4.51448        4.98093
C        -18.73165       -3.60976        4.26053
C        -17.46254       -3.22765        4.85675
S        -17.30851       -3.97432        6.45478
C        -16.49173       -2.50364        4.26252
C        -16.48341       -1.99897        2.89723
C        -15.24896       -1.73838        2.43085
C        -14.21762       -2.08181        3.39035
S        -14.92903       -2.15075        4.99086
C        -12.96185       -2.42616        3.05203
C        -12.07891       -3.13658        3.91678
O        -10.68855       -2.97101        3.93017
C        -12.32689       -4.14245        4.81612
C        -13.38143       -4.97415        5.31966
O        -14.44561       -5.24951        4.79395
N        -12.83735       -5.55784        6.44040
C        -11.47175       -5.38647        6.53565
O        -10.70802       -5.93175        7.31060
C        -11.15435       -4.45494        5.49264
C        -10.10422       -3.82804        4.87536
C         -8.70447       -4.00265        5.06432
C         -7.83546       -2.98244        4.98186
C         -6.41359       -3.09606        5.18635
C         -5.62719       -3.45547        4.11056
S         -3.97110       -3.37977        4.47344
C         -4.26334       -2.87519        6.08479
C         -5.62307       -2.81919        6.39479
C         -5.95174       -2.48490        7.75614
C         -7.42024       -2.41890        8.18971
C         -8.10697       -3.77125        8.36609
C         -4.87100       -2.18788        8.72603
C         -5.23138       -1.84334       10.16477
C         -5.04394       -0.36209       10.47866
C         -3.47896       -2.18683        8.33030
C         -2.19126       -1.87710        9.02787
C         -1.11711       -2.02711        8.17094
S         -1.57427       -2.52948        6.60932
C         -3.23700       -2.54478        7.00500
C         -1.99429       -1.54473       10.43586
C         -1.10279       -0.70888       11.02297
C         -1.03231       -0.59297       12.46727
S         -0.12761       -1.81419       13.30570
C         -0.49435       -1.19942       14.85506
C         -1.26388       -0.05566       14.76711
C         -1.49897        0.36365       13.38787
C         -2.25765        1.66827       13.11835
C         -1.51434        2.63029       12.19787
O         -0.28276        2.63024       12.09743
C         -2.38717        3.67400       11.51330
F         -3.71525        3.51588       11.78050
F         -2.08112        4.94208       11.90574
F         -2.26973        3.64325       10.15991
C         -2.53454        2.49274       14.40852
C         -2.91524        1.64076       15.61069
C         -1.76228        0.71153       15.96649
C          0.02192       -1.82812       16.02317
C         -0.65650       -2.79993       16.64584
H        -20.55077      -11.35282        7.57517
H        -17.48563      -10.85527       11.50199
H        -20.94478      -14.01834        8.58132
H        -17.82630       -5.80064        8.58382
H        -20.03771       -6.50811        6.60348
H        -20.36453       -4.93416        4.66811
H        -19.07674       -3.23091        3.31296
H        -17.37705       -1.90778        2.29708
H        -15.03341       -1.42501        1.41938
H        -12.61313       -2.28463        2.03357
H        -13.35227       -6.21636        6.99795
H         -8.35594       -4.99180        5.35875
H         -8.20113       -1.99397        4.70591
H         -5.95006       -3.72937        3.11444
H         -7.97370       -1.80890        7.46661
H         -7.54980       -1.86106        9.11602
H         -8.52703       -4.12999        7.43412
H         -8.96514       -3.68071        9.04037
H         -7.44148       -4.55481        8.73570
H         -4.63536       -2.47008       10.83462
H         -6.24496       -2.13894       10.42966
H         -4.08392       -0.17595       10.96358
H         -5.80523       -0.02418       11.18667
H         -5.08997        0.27080        9.58672
H         -0.06208       -1.90737        8.37950
H         -2.65530       -2.07338       11.11370
H         -0.35288       -0.17418       10.44390
H         -3.21071        1.38803       12.65514
H         -3.32863        3.22658       14.22337
H         -1.64519        3.08219       14.67749
H         -3.13932        2.28663       16.46926
H         -3.82523        1.06882       15.39386
H         -2.09690        0.02706       16.75517
H         -0.93166        1.29847       16.37936
H          0.96280       -1.46757       16.43070
H         -1.60893       -3.16854       16.27830
H         -0.26211       -3.25206       17.55111
