95

C         -7.93789        0.70390       -7.94334
C         -9.26075        0.79185       -8.22108
C         -9.75490        1.19338       -9.49389
N        -10.15198        1.52940      -10.53737
C        -10.24807        0.61323       -7.20793
N        -11.04140        0.48783       -6.37145
C         -6.82084        1.12464       -8.84580
C         -5.72606        1.43865       -8.03602
C         -4.50746        1.90118       -8.50286
C         -4.38913        2.12314       -9.88717
C         -5.47360        1.80549      -10.72184
C         -6.69233        1.26629      -10.22429
S         -5.10426        2.18832      -12.36907
C         -3.58730        2.80584      -11.95572
C         -3.29275        2.67722      -10.62668
Br        -2.42291        3.60392      -13.18660
C         -6.03657        1.21919       -6.62223
O         -5.39453        1.64690       -5.68808
C         -7.32312        0.46001       -6.61624
C         -7.64765       -0.38941       -5.62651
C         -6.84245       -0.70645       -4.45097
C         -5.59900       -1.25180       -4.43918
C         -4.69578       -1.60836       -5.52064
C         -3.49871       -2.15197       -5.21956
C         -3.08716       -2.40972       -3.84039
C         -3.88071       -2.11717       -2.79018
C         -5.18924       -1.54535       -3.04832
C         -6.17517       -1.21631       -2.18501
C         -7.23454       -0.61627       -3.02314
C         -8.36463       -0.04776       -2.57914
N         -6.25233       -1.37876       -0.81037
C         -6.19569       -2.58256       -0.15036
S         -6.71891       -4.05306       -0.89222
C         -6.34182       -4.97031        0.47470
N         -6.49346       -6.40174        0.44826
O         -6.21347       -7.00343        1.49405
O         -6.88017       -6.93502       -0.60034
C         -5.89149       -4.20341        1.52567
C         -5.81136       -2.81250        1.17138
C         -5.30215       -1.77489        2.03204
C         -5.33464       -1.76494        3.37788
C         -4.75982       -0.71144        4.19728
C         -5.07194        0.60676        4.16844
C         -6.04441        1.33508        3.37522
C         -6.14757        2.66975        3.53980
C         -5.31624        3.40158        4.49518
C         -4.40973        2.78358        5.27970
C         -4.24970        1.34498        5.15462
C         -3.42403        0.49391        5.80711
C         -3.74958       -0.84079        5.27128
C         -3.22495       -1.99170        5.71448
C         -2.50310        0.87948        6.86113
C         -1.16520        0.75308        6.88270
C         -0.19957        1.22073        7.91013
C         -0.40684        1.32807        9.24627
C          0.62589        1.66537       10.16803
N          1.46564        1.94072       10.92051
C         -1.66206        1.03404        9.85321
N         -2.68433        0.79751       10.34848
C          1.12293        1.33856        7.22531
C          1.03597        0.70850        5.98404
C         -0.34157        0.26014        5.72369
O         -0.68042       -0.37207        4.74682
C          2.10482        0.57729        5.10243
C          3.34502        1.13862        5.48227
C          3.42640        1.82005        6.70616
C          2.32269        1.94298        7.58707
S          5.01204        2.45709        6.96176
C          5.57181        1.82024        5.50326
C          4.60954        1.14813        4.79780
Br         7.33764        2.02099        4.91151
H         -3.69646        2.11564       -7.81263
H         -7.48368        1.02051      -10.92531
H         -2.36316        3.00202      -10.17411
H         -8.56157       -0.97857       -5.67696
H         -4.96981       -1.42428       -6.55015
H         -2.79340       -2.41059       -6.00403
H         -2.10590       -2.84851       -3.68568
H         -3.56006       -2.28906       -1.76976
H         -8.60502        0.01828       -1.52522
H         -9.08600        0.38997       -3.26185
H         -6.88740       -0.70647       -0.38972
H         -5.59314       -4.62055        2.48169
H         -4.82301       -0.93534        1.52722
H         -5.77706       -2.58684        3.93512
H         -6.68302        0.80840        2.67710
H         -6.86673        3.24507        2.96378
H         -5.45826        4.47701        4.55489
H         -3.80606        3.34175        5.98423
H         -2.48600       -2.00780        6.50812
H         -3.49434       -2.95003        5.28697
H         -3.02684        1.36178        7.68257
H          1.97921        0.06625        4.15137
H          2.45177        2.50605        8.50419
H          4.78387        0.67790        3.83737
