93

C        -11.63192       -1.74852       -1.19815
C        -11.24045       -2.68643       -2.09635
C        -11.63137       -4.05438       -2.01413
N        -11.94094       -5.17436       -1.95591
C        -10.41916       -2.39636       -3.22779
N         -9.74852       -2.17765       -4.14426
C        -12.57548       -1.96151       -0.05009
C        -12.89959       -0.71893        0.49495
C        -13.73740       -0.52557        1.58883
C        -14.31873       -1.66498        2.17846
C        -14.01991       -2.92366        1.63661
C        -13.14302       -3.09309        0.53080
S        -14.85379       -4.17494        2.49078
C        -15.57179       -3.06839        3.54415
C        -15.21058       -1.77131        3.29892
Br       -16.74882       -3.56786        4.91289
C        -12.22606        0.36286       -0.22195
O        -12.43404        1.53977       -0.01143
C        -11.30293       -0.29395       -1.21050
C        -10.31223        0.37105       -1.83295
C        -10.01286        1.78575       -1.72419
C         -8.96256        2.36657       -2.32466
C         -8.70562        3.74925       -2.12247
O         -9.67203        4.66290       -1.75846
C         -9.12134        5.91982       -1.63825
C         -7.76222        5.78322       -1.87258
C         -7.51656        4.44567       -2.20775
O         -6.31938        3.90676       -2.49770
O         -6.81641        6.73672       -1.76491
C         -9.92652        7.03213       -1.28765
C         -9.63807        8.28199       -1.67616
C        -10.41371        9.44392       -1.30826
C        -11.08283        9.56374       -0.15134
C        -11.82522       10.72681        0.20910
S        -11.93375       11.09182        1.89698
C        -12.83939       12.54668        1.67157
C        -13.09817       12.71955        0.32047
C        -12.54497       11.66148       -0.51204
C        -12.74301       11.59406       -1.90185
C        -13.47525       12.68083       -2.40566
F        -13.69676       12.72326       -3.72928
C        -13.99872       13.72137       -1.60005
F        -14.68336       14.70939       -2.19753
C        -13.85947       13.77784       -0.20353
C        -13.18119       13.28274        2.85335
C        -13.26589       14.61971        2.85017
C        -13.60651       15.44598        3.99536
C        -13.75436       16.78144        3.95142
C        -13.97345       17.63964        5.09237
C        -13.87960       18.95066        4.80793
C        -13.60266       19.23075        3.40651
S        -13.65491       17.72641        2.49002
C        -13.29760       20.41141        2.83070
C        -13.15820       21.70366        3.47429
C        -12.73123       22.67749        2.65241
C        -12.50219       22.24096        1.28876
S        -12.93672       20.56475        1.10426
C        -12.01135       23.01464        0.30566
C        -11.77916       22.55515       -1.01436
S        -12.93354       22.64379       -2.30745
C        -11.83894       21.96538       -3.48375
C        -10.67208       21.71135       -2.85587
C        -10.63715       22.03803       -1.51669
O         -9.46229       21.81861       -0.85897
C         -8.72610       21.29899       -1.90612
N         -7.39167       20.92696       -1.57381
O         -7.05091       19.77614       -1.87543
O         -6.67511       21.79831       -1.06690
C         -9.39157       21.20720       -3.13180
H        -13.92972        0.47477        1.96889
H        -12.95156       -4.10229        0.18545
H        -15.56489       -0.92443        3.87496
H         -9.60585       -0.15368       -2.46752
H        -10.65441        2.40456       -1.10101
H         -8.26410        1.80716       -2.93866
H         -5.65319        4.61748       -2.43784
H         -7.18084        7.52275       -1.32169
H        -10.81546        6.81222       -0.70225
H         -8.81168        8.48603       -2.35390
H        -10.36158       10.25885       -2.02547
H        -11.03841        8.76039        0.58162
H        -12.40864       10.80940       -2.56512
H        -14.32395       14.57794        0.35335
H        -13.34128       12.72929        3.77570
H        -13.02658       15.15706        1.93752
H        -13.70133       14.93250        4.94905
H        -14.15313       17.24529        6.08316
H        -13.98037       19.72365        5.55697
H        -13.35909       21.86473        4.52497
H        -12.55633       23.69692        2.97028
H        -11.76132       24.05142        0.50948
H        -12.13362       21.82091       -4.51501
H         -8.98057       20.84196       -4.06309
