96

C         -8.82252        3.80519       -8.93355
C         -9.91834        4.54073       -8.62602
C        -10.52353        5.47514       -9.53472
N        -11.02034        6.25424      -10.22874
C        -10.62605        4.35006       -7.40567
N        -11.23037        4.12387       -6.45206
C         -8.18369        3.70245      -10.28310
C         -7.13667        2.77872      -10.20728
C         -6.30300        2.43712      -11.25931
C         -6.56636        3.02843      -12.50696
C         -7.65896        3.90050      -12.62618
C         -8.47784        4.25764      -11.52347
S         -7.83392        4.44340      -14.25776
C         -6.41632        3.66026      -14.73388
C         -5.85693        2.89930      -13.74473
Br        -5.66664        3.83463      -16.43983
C         -7.04469        2.18526       -8.87679
O         -6.28454        1.29937       -8.53855
C         -8.06236        2.88607       -8.04834
C         -8.04524        2.67385       -6.72315
N         -7.24868        1.80494       -6.00363
C         -7.25158        1.50359       -4.67165
S         -6.06138        0.37546       -4.09571
C         -6.59956        0.52453       -2.50311
N         -5.90034       -0.14333       -1.45436
O         -5.45837        0.57752       -0.54503
O         -5.81728       -1.37367       -1.51599
C         -7.68090        1.35843       -2.36343
C         -8.04989        1.94443       -3.61794
C         -9.12835        2.88959       -3.74203
C         -8.99331        4.21430       -3.52708
C        -10.04988        5.19728       -3.74938
C         -9.95041        6.38084       -4.43029
O        -11.09678        7.15724       -4.70770
C        -12.28244        6.63617       -4.32940
C        -12.36320        5.47561       -3.54784
C        -13.65170        5.13000       -3.22885
S        -14.77171        6.18984       -3.99309
C        -13.50833        7.12188       -4.70399
O        -11.27215        4.76638       -3.19613
C         -8.74666        6.95723       -5.05155
C         -8.70102        8.15046       -5.68263
C         -7.51338        8.70975       -6.32847
C         -7.38766        9.88510       -6.96483
C         -6.15950       10.34616       -7.58571
C         -6.23663       11.56797       -8.12299
C         -7.52735       12.20979       -7.96242
S         -8.64216       11.08822       -7.16059
C         -7.84792       13.47156       -8.31658
C         -6.98955       14.44314       -8.97555
C         -7.53437       15.66508       -9.09566
C         -8.85835       15.76595       -8.51855
S         -9.41300       14.20930       -7.96572
C         -9.53253       16.92274       -8.40596
C        -10.79161       17.13301       -7.71714
C        -11.52118       18.24649       -7.54221
C        -11.47158       19.66139       -7.96247
C        -10.39830       20.46098       -8.15333
C        -10.50569       21.84883       -8.44308
N        -10.58178       22.98465       -8.67979
C         -9.05542       20.05933       -7.97085
N         -7.93207       19.77768       -7.86529
C        -12.86750       20.19019       -7.82078
C        -13.59331       19.30584       -7.02502
C        -12.83664       18.06410       -6.82161
O        -13.23543       17.09244       -6.21379
C        -14.85912       19.57924       -6.51759
C        -15.46306       20.80330       -6.88448
C        -14.79592       21.63292       -7.79809
C        -13.49501       21.34395       -8.27854
S        -15.76444       22.99966       -8.22135
C        -16.98812       22.54023       -7.15441
C        -16.70656       21.39001       -6.46667
Br       -18.58029       23.50424       -6.94526
H         -5.48084        1.74266      -11.11186
H         -9.30243        4.93870      -11.69684
H         -4.96046        2.30315      -13.86604
H         -8.70472        3.24108       -6.09229
H         -6.58176        1.28464       -6.59255
H         -8.17188        1.55522       -1.41801
H        -10.07046        2.48328       -4.12115
H         -8.03337        4.60020       -3.19848
H        -13.99182        4.30341       -2.62243
H        -13.73940        7.95298       -5.35691
H         -7.84264        6.35478       -4.98370
H         -9.59929        8.76686       -5.73286
H         -6.63103        8.06503       -6.27542
H         -5.26134        9.74180       -7.60064
H         -5.39462       12.05143       -8.61009
H         -5.99314       14.21872       -9.32939
H         -7.02567       16.51359       -9.53501
H         -9.05686       17.78277       -8.84978
H        -11.19924       16.21912       -7.27321
H        -15.35684       18.87522       -5.85598
H        -13.03146       22.03863       -8.96977
H        -17.36048       20.95941       -5.71796
