115

C          0.08514        0.63023       -0.51040
C          0.46991       -0.13526        0.53837
C          1.56404       -1.03915        0.46563
N          2.45087       -1.77981        0.39441
C         -0.14865       -0.04437        1.82152
N         -0.65385        0.02408        2.86171
C          0.74293        0.72420       -1.84877
C          0.32857        1.91282       -2.45640
C          0.71054        2.31404       -3.73035
C          1.55807        1.45320       -4.46028
C          1.97997        0.25494       -3.86197
C          1.58125       -0.13108       -2.55467
S          3.00510       -0.64014       -4.92914
C          2.87025        0.52502       -6.14284
C          2.07800        1.58491       -5.79339
Br         3.71928        0.37891       -7.80628
C         -0.63082        2.62603       -1.60293
O         -1.01048        3.76399       -1.77445
C         -0.97166        1.66180       -0.50464
C         -2.14422        1.66642        0.14937
C         -3.22894        2.61721       -0.09745
C         -3.34956        3.76096        0.69327
C         -4.40435        4.62292        0.43192
C         -5.30615        4.38540       -0.62914
C         -5.19806        3.24511       -1.40293
C         -4.15868        2.35387       -1.12537
C         -6.27150        5.45933       -0.68252
C         -6.02880        6.34825        0.38419
C         -4.80204        5.89333        1.18566
C         -5.16631        5.57413        2.66350
C         -6.22728        4.49336        2.87276
C         -3.66410        6.95147        1.16232
C         -3.06442        7.25695       -0.20971
C         -6.85367        7.44352        0.59948
C         -7.91402        7.68403       -0.29012
C         -8.12213        6.80789       -1.37602
C         -7.30306        5.69150       -1.57603
C         -8.84964        8.80546       -0.10417
C         -8.49713        9.96383        0.47394
C         -9.39576       11.06289        0.57350
S         -8.69268       12.65852        0.49320
C        -10.24585       13.29655        0.46718
C        -11.27246       12.41674        0.64101
C        -10.78294       11.08499        0.72645
S        -12.70811       13.37828        0.59376
C        -11.93441       14.85724        0.14175
C        -12.16926       16.18113       -0.31736
C        -10.96636       16.78215       -0.68558
S         -9.56333       15.84487       -0.26383
C        -10.59709       14.59374        0.18448
C        -10.77159       17.99392       -1.40742
C        -10.66609       19.20114       -0.83797
C        -10.55289       20.43331       -1.58551
C        -10.72882       21.53092       -0.83518
C        -11.00624       21.23358        0.55931
S        -10.71921       19.51910        0.87135
C        -11.53474       22.07177        1.46969
C        -11.93821       23.44982        1.25920
C        -12.74810       23.92488        2.21985
C        -13.02802       22.96168        3.26345
S        -12.00484       21.55743        3.08172
C        -13.98698       23.08265        4.19793
C        -14.34901       22.05117        5.14979
C        -13.50729       21.53207        6.07809
C        -14.15405       20.35880        6.60986
C        -13.67792       19.39820        7.42177
C        -14.53750       18.24818        7.61352
C        -14.31168       17.08147        8.24506
C        -15.47453       16.19203        8.07879
C        -16.43900       16.85571        7.39935
C        -15.88826       18.14101        7.04087
C        -16.38325       19.12650        6.26990
C        -15.48691       20.23704        6.00534
C        -15.59989       21.26968        5.15437
C        -15.63460       14.84152        8.56209
C        -14.62186       13.97909        8.71876
H          0.33649        3.24211       -4.15447
H          1.91799       -1.08626       -2.16701
H          1.86729        2.42388       -6.44615
H         -2.42332        0.89154        0.85657
H         -2.64283        3.97494        1.48825
H         -5.90595        3.03456       -2.19679
H         -4.07588        1.44756       -1.72004
H         -5.50940        6.48843        3.16488
H         -4.26214        5.25330        3.19818
H         -7.18513        4.77250        2.42486
H         -6.39389        4.34144        3.94438
H         -5.91522        3.53134        2.45504
H         -2.84163        6.61765        1.80955
H         -4.02881        7.89230        1.59463
H         -2.49757        6.40327       -0.59498
H         -2.36658        8.09722       -0.13102
H         -3.82950        7.52578       -0.94280
H         -6.67532        8.08849        1.45340
H         -8.92797        6.99375       -2.08396
H         -7.47714        5.03098       -2.41859
H         -9.84732        8.66247       -0.51266
H         -7.47599       10.12271        0.81089
H        -11.40373       10.20414        0.83020
H        -13.14627       16.62282       -0.46527
H        -10.75427       17.90392       -2.48961
H        -10.38555       20.45221       -2.65376
H        -10.71884       22.53192       -1.24099
H        -11.65624       24.02082        0.38601
H        -13.18977       24.91115        2.20380
H        -14.62506       23.96170        4.20648
H        -12.48729       21.82320        6.26994
H        -12.68236       19.42033        7.84400
H        -13.41078       16.80150        8.76739
H        -17.40712       16.48663        7.10393
H        -17.35726       19.07957        5.80235
H        -16.43092       21.46695        4.49569
H        -16.64806       14.51132        8.77835
H        -13.59589       14.24342        8.48143
H        -14.80450       12.96811        9.06794
