99

C         -3.39731        0.68865        5.01792
C         -2.94404       -0.57192        4.85480
C         -2.11416       -1.22867        5.81610
N         -1.43882       -1.75863        6.59336
C         -3.30258       -1.38018        3.73929
N         -3.60126       -2.02020        2.81833
C         -3.18671        1.57183        6.20980
C         -4.10947        2.62129        6.14663
C         -4.18268        3.65825        7.06994
C         -3.26492        3.64716        8.14086
C         -2.34105        2.59442        8.22284
C         -2.27735        1.55158        7.25930
S         -1.33380        2.76564        9.61902
C         -2.09810        4.19955       10.07627
C         -3.08964        4.58527        9.21537
Br        -1.63451        5.16579       11.61288
C         -4.94606        2.51151        4.94681
O         -5.94929        3.15500        4.72842
C         -4.31771        1.43203        4.11900
C         -4.44194        1.36857        2.78133
C         -5.20343        2.29490        2.00664
S         -4.42437        3.72198        1.42192
C         -5.79329        4.25255        0.50125
C         -6.80253        3.30636        0.59543
C         -6.49257        2.23067        1.51931
C         -7.37794        1.18903        1.82830
C         -8.59335        1.29551        1.12571
F         -9.52495        0.35263        1.34046
C         -8.88580        2.32290        0.18830
F        -10.07025        2.29838       -0.44517
C         -8.00522        3.36900       -0.12757
C         -5.68133        5.49789       -0.19947
C         -6.74785        6.29061       -0.37998
C         -6.75105        7.52052       -1.14069
C         -7.82720        8.31792       -1.32657
C         -9.17404        8.07051       -0.69392
C         -7.71987        9.51225       -2.25658
N         -8.58707       10.59750       -1.85160
C         -8.32971       11.51739       -0.87431
C         -9.16501       12.45997       -0.42201
C         -8.80126       13.42024        0.59986
C         -8.37706       13.13059        1.83857
C         -8.10237       14.10580        2.86671
C         -7.98992       13.56533        4.08993
C         -8.17958       12.12423        4.10379
S         -8.19512       11.51107        2.46083
C         -8.45054       11.35307        5.17113
C         -8.61488       11.80190        6.53867
C         -9.25211       10.91284        7.31631
C         -9.62927        9.70610        6.61380
S         -8.85006        9.63913        5.05691
C        -10.50528        8.79934        7.07317
C        -10.97246        7.61733        6.37073
C        -11.63977        7.56685        5.20692
C        -12.13029        8.59536        4.27920
C        -12.76025        9.75176        4.59947
C        -13.25164       10.66391        3.62221
N        -13.64613       11.41560        2.83042
C        -13.10205       10.08295        5.94379
N        -13.43274       10.35146        7.02406
C        -12.13052        7.97403        2.92439
C        -12.02738        6.58843        3.08463
C        -11.75117        6.25151        4.49467
O        -11.61573        5.13842        4.95736
C        -12.17546        5.68182        2.04186
C        -12.46015        6.20213        0.75708
C        -12.49219        7.59513        0.58431
C        -12.28165        8.50223        1.64943
S        -12.85295        8.01668       -1.05223
C        -12.99962        6.39731       -1.50039
C        -12.75580        5.52266       -0.47517
Br       -13.46938        5.85917       -3.23143
H         -4.91063        4.45665        6.94906
H         -1.51416        0.79001        7.37465
H         -3.68051        5.48561        9.33726
H         -3.87951        0.65299        2.19388
H         -7.19225        0.38202        2.52235
H         -8.27156        4.10509       -0.87254
H         -4.70427        5.80545       -0.56266
H         -7.69525        5.98988        0.04904
H         -5.81425        7.77038       -1.63822
H         -9.16824        7.30725        0.08658
H         -9.88628        7.75608       -1.46003
H         -9.55100        8.96687       -0.19473
H         -8.01385        9.20385       -3.26587
H         -6.68627        9.87386       -2.31564
H         -9.49075       10.65557       -2.30934
H         -7.33129       11.41924       -0.44909
H        -10.16867       12.54897       -0.82898
H         -8.96309       14.45713        0.31396
H         -8.04221       15.16637        2.66417
H         -7.83086       14.15066        4.98340
H         -8.30294       12.77668        6.88349
H         -9.50587       11.08999        8.35227
H        -10.93507        8.94067        8.06431
H        -10.67964        6.67922        6.84635
H        -12.11736        4.61190        2.22367
H        -12.29077        9.56721        1.44573
H        -12.80891        4.44487       -0.57539
