108

C         -2.00232        0.40117        3.38676
C         -2.39347       -0.89264        3.52515
C         -1.57403       -1.91190        4.10397
N         -0.93013       -2.74739        4.57554
C         -3.66244       -1.37108        3.09452
N         -4.68283       -1.77850        2.73334
C         -0.64474        0.93800        3.76372
C         -0.62031        2.29750        3.46282
C          0.48700        3.12151        3.64305
C          1.67334        2.54240        4.13649
C          1.67015        1.17661        4.45323
C          0.51728        0.35985        4.28376
S          3.22290        0.67918        5.03808
C          3.87110        2.22531        4.83040
C          2.96109        3.13534        4.36554
Br         5.65870        2.65690        5.18995
C         -1.89960        2.75205        2.90535
O         -2.15728        3.90400        2.62679
C         -2.78913        1.54437        2.80984
C         -4.01973        1.60589        2.26513
C         -4.57222        2.75406        1.58807
C         -5.37087        3.80655        2.00621
N         -5.87805        3.90614        3.34898
O         -6.54147        2.94525        3.76099
O         -5.67236        4.96421        3.95512
C         -5.69549        4.75783        0.95378
C         -6.51628        5.99701        1.18403
C         -5.16765        4.36442       -0.27632
S         -4.38467        2.83378       -0.11368
C         -5.34649        4.99301       -1.56186
C         -4.47477        5.03211       -2.58610
C         -4.78411        5.58192       -3.89543
C         -3.89972        5.23445       -4.84782
C         -2.83668        4.37578       -4.35152
S         -2.84670        4.40889       -2.59273
C         -2.05992        3.53863       -5.06600
C         -2.05988        3.33214       -6.50545
C         -1.68622        2.08562       -6.85294
C         -1.46464        1.24916       -5.68630
S         -1.07179        2.27100       -4.32517
C         -1.80206       -0.05335       -5.63592
C         -2.13513       -0.83008       -4.42258
C         -1.82481       -2.21072       -4.26817
N         -0.97233       -3.11069       -4.92414
C          0.09453       -2.67996       -5.81645
C          1.39845       -2.42521       -5.08182
C         -1.15135       -4.42396       -4.45544
C         -2.03521       -4.30670       -3.37020
C         -2.41216       -2.94221       -3.22834
C         -3.25624       -2.30629       -2.28959
C         -3.54341       -0.95767       -2.41152
C         -3.02250       -0.25221       -3.48129
C         -2.42435       -5.44731       -2.63310
C         -1.92861       -6.69741       -2.96290
C         -1.05109       -6.82190       -4.02603
C         -0.63470       -5.71314       -4.80044
C          0.17334       -5.95753       -6.00554
C          1.06562       -6.95553       -6.14217
C          1.77876       -7.22302       -7.37292
C          1.26411       -7.49596       -8.58175
C         -0.10848       -7.63366       -9.09230
C         -1.18578       -8.12582       -8.43746
C         -2.52291       -7.95716       -8.90195
N         -3.60438       -7.77163       -9.27228
C         -1.03168       -8.97378       -7.30103
N         -0.90642       -9.75411       -6.44926
C         -0.03460       -7.50266      -10.58255
C          1.31570       -7.46130      -10.94945
C          2.18386       -7.44235       -9.76162
O          3.39473       -7.36352       -9.76377
C          1.77008       -7.54551      -12.26138
C          0.80798       -7.75620      -13.27417
C         -0.54813       -7.78693      -12.91804
C         -0.99378       -7.62531      -11.58242
S         -1.54889       -8.09509      -14.29254
C         -0.21249       -8.22909      -15.31283
C          0.98051       -8.00344      -14.67965
Br        -0.35385       -8.65759      -17.13047
H          0.43863        4.17457        3.38284
H          0.60553       -0.68726        4.54618
H          3.18942        4.17664        4.17201
H         -4.65940        0.73508        2.19504
H         -7.32690        5.80724        1.89546
H         -6.98629        6.36179        0.26630
H         -5.88308        6.79616        1.58274
H         -6.31709        5.46096       -1.71727
H         -5.67279        6.16921       -4.08702
H         -4.00651        5.50339       -5.88913
H         -2.36946        4.09070       -7.20970
H         -1.67370        1.70925       -7.86540
H         -2.09102       -0.55602       -6.55667
H         -0.21153       -1.77719       -6.34113
H          0.22617       -3.41229       -6.60701
H          1.28546       -1.61626       -4.35222
H          2.18002       -2.13480       -5.79078
H          1.73676       -3.31731       -4.54573
H         -3.70463       -2.87775       -1.48142
H         -4.20733       -0.46813       -1.70496
H         -3.35098        0.77977       -3.59413
H         -3.13094       -5.34975       -1.81289
H         -2.24352       -7.57472       -2.40461
H         -0.71051       -7.82767       -4.26675
H         -0.04139       -5.32907       -6.85898
H          1.32394       -7.61105       -5.31014
H          2.86431       -7.16462       -7.26307
H          2.83428       -7.53361      -12.48163
H         -2.05686       -7.69307      -11.38823
H          1.94345       -8.04673      -15.17414
