83

C        -13.25172       11.58492        0.77363
C        -13.11499       11.29293        2.08658
C        -13.35669       12.25989        3.10607
N        -13.53325       13.07385        3.91581
C        -12.57008       10.04996        2.52322
N        -12.11995        9.04226        2.86492
C        -13.61504       12.91612        0.23838
C        -12.92323       13.09970       -0.96041
C        -12.98424       14.27721       -1.69048
C        -13.88022       15.28169       -1.24492
C        -14.65152       15.04638       -0.09369
C        -14.52338       13.87028        0.67892
S        -15.74647       16.34967        0.20394
C        -15.19578       17.20229       -1.14331
C        -14.18991       16.56352       -1.81812
Br       -15.90688       18.85262       -1.67194
C        -12.27614       11.82974       -1.37137
O        -11.56568       11.64364       -2.33694
C        -12.74299       10.81306       -0.36977
C        -12.84778        9.50364       -0.64677
N        -12.45181        8.80672       -1.77790
C        -12.67791        7.48528       -2.07523
S        -14.08309        6.63671       -1.50124
C        -13.62206        5.21119       -2.26716
N        -14.41322        4.03452       -2.12048
O        -13.82226        3.02238       -1.72388
O        -15.60469        4.10832       -2.44459
C        -12.44516        5.30993       -2.95746
C        -11.89661        6.63159       -2.86384
C        -10.63623        7.01017       -3.44123
C         -9.92307        6.29658       -4.33173
C         -8.60926        6.67807       -4.81678
C         -8.21765        7.89910       -5.21685
C         -9.12159        9.09987       -5.31883
C         -6.78419        8.14707       -5.62111
N         -6.09091        8.68994       -4.47104
C         -5.41248        9.88261       -4.37150
C         -5.41357       10.87931       -5.25969
C         -4.76918       12.16717       -5.18353
C         -3.48236       12.48397       -4.98391
C         -2.99367       13.82830       -5.18380
C         -1.67569       13.95776       -4.99547
C         -1.02335       12.73683       -4.55158
S         -2.18250       11.40153       -4.56400
C          0.25881       12.64484       -4.14606
C          1.22800       13.72770       -4.16201
C          2.41950       13.40608       -3.64277
C          2.48443       12.05185       -3.14675
S          0.99095       11.19738       -3.45140
C          3.55959       11.54304       -2.52884
C          3.63649       10.25407       -1.87367
C          4.54171        9.29909       -2.11918
S          4.63517        7.84829       -1.16079
C          6.03470        7.27310       -2.04921
O          6.66077        6.25789       -1.79944
C          6.35636        8.20770       -3.14268
C          5.55091        9.27758       -3.14799
H        -12.40671       14.39730       -2.60207
H        -15.15402       13.72342        1.55121
H        -13.71076       16.96248       -2.70373
H        -13.32149        8.85097        0.08295
H        -11.88388        9.36837       -2.42078
H        -11.99657        4.47281       -3.47981
H        -10.21624        7.95271       -3.09575
H        -10.26366        5.32796       -4.68544
H         -7.89411        5.85316       -4.83617
H        -10.16212        8.81515       -5.50941
H         -8.82917        9.74567       -6.15211
H         -9.07795        9.68750       -4.39656
H         -6.74961        8.80103       -6.49732
H         -6.29188        7.21758       -5.92824
H         -6.10751        8.11281       -3.63430
H         -4.85616        9.96390       -3.43817
H         -6.02979       10.78286       -6.14874
H         -5.45303       12.97219       -5.45226
H         -3.63575       14.63973       -5.49849
H         -1.16101       14.89722       -5.13235
H          1.01482       14.71085       -4.55598
H          3.24633       14.09882       -3.56559
H          4.44979       12.16055       -2.41847
H          2.90818       10.10875       -1.07521
H          7.15838        7.99754       -3.83068
H          5.62903       10.06248       -3.88920
