91

C         -5.31135        3.44262        3.85083
C         -4.67729        2.28715        3.53599
C         -3.26635        2.12043        3.69423
N         -2.12581        1.99018        3.83392
C         -5.38304        1.11483        3.14338
N         -5.94335        0.14270        2.83513
C         -4.68170        4.64180        4.46687
C         -5.66310        5.32106        5.19313
C         -5.42823        6.48020        5.91651
C         -4.11518        6.99903        5.90434
C         -3.13134        6.34061        5.14792
C         -3.39859        5.16693        4.40113
S         -1.60939        7.14921        5.27177
C         -2.24054        8.31203        6.31876
C         -3.57800        8.15605        6.56354
Br        -1.20887        9.68061        7.07332
C         -6.97516        4.68585        5.00769
O         -7.98460        4.94803        5.62608
C         -6.76728        3.67434        3.92106
C         -7.74129        3.25100        3.10260
C         -9.14751        3.63091        3.17141
C        -10.16588        2.87739        2.72788
C        -11.57015        3.19475        2.85372
C        -12.38650        2.20109        2.46188
C        -11.68451        1.02003        1.98645
S         -9.94837        1.32374        1.98169
C        -12.19497       -0.18086        1.65210
C        -13.57297       -0.62437        1.74014
C        -13.71796       -1.95383        1.59858
C        -12.47026       -2.65440        1.36138
S        -11.17765       -1.51686        1.11029
C        -12.30738       -3.98799        1.37182
C        -11.03615       -4.60898        1.18721
S        -10.46462       -5.00208       -0.39509
C         -8.92946       -5.59324        0.17011
C         -8.92840       -5.57372        1.54727
C        -10.09981       -4.99666        2.11438
C        -10.01206       -4.94533        3.60026
C         -8.50709       -5.23504        3.85997
C         -7.99076       -6.01335        2.61961
C         -7.95882       -6.00426       -0.79258
C         -6.64193       -5.82779       -0.59277
C         -5.69369       -6.19433       -1.59626
O         -5.95636       -7.22349       -2.47910
C         -4.92127       -7.39069       -3.35800
C         -3.96513       -6.45109       -3.03984
C         -4.42263       -5.69996       -1.90762
C         -3.63621       -4.62873       -1.29125
O         -2.52550       -4.34353       -1.74717
C         -4.14383       -3.86296       -0.10080
C         -4.91712       -8.39492       -4.36357
C         -5.36816       -8.18626       -5.60768
C         -5.52655       -9.23023       -6.59603
C         -6.25829       -8.85352       -7.65563
C         -6.72598       -7.47742       -7.57963
S         -5.94122       -6.65988       -6.22869
C         -7.67830       -6.90627       -8.34223
C         -8.43780       -7.55256       -9.39847
C         -9.43421       -6.80129       -9.88947
C         -9.52778       -5.50456       -9.27011
S         -8.25858       -5.25178       -8.11105
C        -10.46721       -4.58903       -9.51810
H         -6.23287        6.96773        6.45966
H         -2.60745        4.72324        3.80557
H         -4.15851        8.81552        7.19739
H         -7.48812        2.58619        2.27844
H         -9.37591        4.58627        3.64024
H        -11.91670        4.13887        3.25331
H        -13.46446        2.26959        2.50264
H        -14.39691        0.04384        1.94890
H        -14.66543       -2.46951        1.67796
H        -13.15009       -4.64123        1.57096
H        -10.63459       -5.72834        4.04543
H        -10.29998       -3.97370        4.01168
H         -8.33930       -5.77871        4.79485
H         -7.96542       -4.28205        3.93066
H         -8.09185       -7.09136        2.78091
H         -6.94241       -5.77780        2.42321
H         -8.31571       -6.40525       -1.73893
H         -6.28979       -5.37627        0.32261
H         -3.02360       -6.30837       -3.55536
H         -5.01927       -3.27162       -0.37841
H         -3.36251       -3.17814        0.24597
H         -4.36283       -4.54157        0.72560
H         -4.61872       -9.39000       -4.04965
H         -5.14168      -10.23130       -6.45591
H         -6.51680       -9.52482       -8.46228
H         -8.24100       -8.55849       -9.73938
H        -10.11704       -7.12719      -10.66121
H        -11.25911       -4.76594      -10.23631
H        -10.47489       -3.63648       -8.99611
