90

C         -2.55868        6.02250       -5.88538
C         -1.50884        6.85322       -5.66452
C         -0.34120        6.86121       -6.48044
N          0.61369        6.87268       -7.13935
C         -1.44583        7.75319       -4.56056
N         -1.39082        8.48657       -3.66295
C         -2.63113        4.95977       -6.94124
C         -3.69363        4.10862       -6.63776
C         -4.04482        2.98503       -7.37687
C         -3.28084        2.69224       -8.52242
C         -2.22700        3.55318       -8.86330
C         -1.89017        4.69714       -8.08966
S         -1.44419        3.02222      -10.31022
C         -2.47127        1.69034      -10.45579
C         -3.40542        1.61169       -9.45913
Br        -2.34590        0.44474      -11.84848
C         -4.42269        4.57101       -5.45793
O         -5.36302        3.98036       -4.96983
C         -3.77623        5.86682       -5.04431
C         -4.32923        6.70574       -4.15033
C         -5.52563        6.41717       -3.45820
S         -7.08578        6.85815       -4.01774
C         -7.89559        6.13279       -2.66533
C         -6.93792        5.62387       -1.82708
C         -5.61946        5.78473       -2.25830
S         -4.44319        5.07008       -1.08786
C         -5.92803        4.62134       -0.19080
N         -7.14067        4.96157       -0.64229
C         -9.31624        6.15747       -2.60332
C         -9.93571        6.17607       -1.41550
C        -11.36651        6.13785       -1.24775
C        -12.01739        6.19909       -0.06763
C        -11.35390        6.37728        1.27181
C        -13.51216        6.01772       -0.00025
N        -14.16241        7.29964       -0.12811
C        -14.57870        7.89259       -1.29204
C        -14.49211        7.45667       -2.55572
C        -14.98859        8.20469       -3.64737
S        -15.52661        7.46577       -5.10425
C        -15.94264        8.97379       -5.85549
C        -15.64050        9.97626       -4.97404
C        -15.10178        9.55832       -3.75376
S        -14.71274       10.98025       -2.69289
C        -15.35839       11.91887       -4.05437
N        -15.79227       11.32740       -5.17391
C        -16.47307        8.96355       -7.17358
C        -17.27731        9.93907       -7.61825
C        -17.80621        9.94008       -8.96047
C        -17.62781       10.89851       -9.87836
C        -16.88127       12.16120       -9.88482
C        -15.63156       12.37002       -9.40116
C        -14.97998       13.63141       -9.46411
N        -14.45791       14.66807       -9.50023
C        -14.79755       11.30731       -8.95327
N        -14.04398       10.45951       -8.68465
C        -17.59525       13.06333      -10.83972
C        -18.48004       12.28018      -11.59160
C        -18.52122       10.90130      -11.07739
O        -19.18698        9.98839      -11.51840
C        -19.21767       12.75564      -12.66886
C        -19.04383       14.10948      -13.03233
C        -18.19701       14.91383      -12.25318
C        -17.48356       14.41653      -11.13307
S        -18.14132       16.53015      -12.86254
C        -19.16132       16.14743      -14.15076
C        -19.60080       14.85099      -14.13048
Br       -19.63816       17.37876      -15.47909
H         -4.88708        2.36667       -7.07742
H         -1.07360        5.32319       -8.42987
H         -4.15157        0.82895       -9.38567
H         -3.90315        7.67467       -3.92216
H         -5.80621        4.06538        0.73030
H         -9.88080        6.16248       -3.53181
H         -9.33333        6.19102       -0.51364
H        -11.93870        6.01619       -2.16477
H        -10.30676        6.68020        1.20943
H        -11.39788        5.44024        1.83576
H        -11.86278        7.15762        1.84583
H        -13.80061        5.56861        0.95645
H        -13.86756        5.32569       -0.77159
H        -14.04793        7.93508        0.65817
H        -15.05519        8.83916       -1.06188
H        -14.04657        6.49031       -2.76921
H        -15.37973       12.99248       -3.92950
H        -16.18306        8.15096       -7.83647
H        -17.58432       10.75879       -6.97019
H        -18.48515        9.11366       -9.17879
H        -19.87816       12.09533      -13.22456
H        -16.85381       15.09657      -10.57094
H        -20.26832       14.42782      -14.87165
