96

C         -5.68337       -0.39459        2.46643
C         -6.13459       -1.66697        2.59146
C         -5.58995       -2.59311        3.52283
N         -5.14037       -3.35250        4.27704
C         -7.23740       -2.16269        1.83394
N         -8.12778       -2.56670        1.21143
C         -4.60362        0.24680        3.28116
C         -4.69915        1.63086        3.12997
C         -3.83270        2.54788        3.71299
C         -2.75964        2.03907        4.47328
C         -2.64502        0.64903        4.62940
C         -3.56206       -0.26633        4.04750
S         -1.25807        0.24665        5.57993
C         -0.80992        1.86691        5.72980
C         -1.68029        2.73058        5.12182
Br         0.73525        2.42485        6.62938
C         -5.76595        1.98001        2.18932
O         -6.14193        3.11130        1.96136
C         -6.24526        0.67998        1.61238
C         -6.89383        0.61737        0.43572
C         -7.20685        1.73790       -0.40327
C         -6.23985        2.19399       -1.27572
S         -6.75866        3.54872       -2.14528
C         -8.30841        3.50354       -1.42046
C         -8.46069        2.47266       -0.50112
C         -9.74704        2.35275        0.12529
C         -9.98878        1.29382        1.19973
C         -9.73761        1.81478        2.61106
C        -10.84194        3.25656       -0.26013
C        -12.22988        2.99161        0.31065
C        -12.99736        2.00270       -0.56159
C        -10.62308        4.32501       -1.20491
C        -11.45490        5.39471       -1.78440
C        -10.73378        6.18221       -2.66459
S         -9.11893        5.71614       -2.80977
C         -9.33610        4.41149       -1.73310
C        -12.85929        5.67911       -1.57434
C        -13.41183        6.90123       -1.70711
C        -14.82560        7.21781       -1.61266
C        -15.52716        7.82708       -2.58417
C        -16.92027        8.20267       -2.50886
C        -17.44678        8.55999       -3.69221
C        -16.50621        8.46747       -4.79747
S        -14.87884        8.20984       -4.16022
C        -16.79480        8.46084       -6.11165
C        -18.10691        8.53001       -6.72663
C        -18.11337        8.20168       -8.02950
C        -16.80126        7.87685       -8.54968
S        -15.57587        8.21087       -7.35686
C        -16.57250        7.32776       -9.75247
C        -15.27435        6.95537      -10.31703
N        -15.25085        5.87574      -11.11888
C        -14.03020        5.56229      -11.61841
C        -12.88750        6.29576      -11.36240
N        -12.97981        7.39235      -10.58895
N        -14.19333        7.72566      -10.06186
C        -11.57412        6.01106      -11.89945
S        -11.03509        4.43855      -12.37566
C         -9.44159        4.98237      -12.88300
C         -9.42415        6.32475      -12.68054
C        -10.56110        6.86353      -12.12966
N        -10.45851        8.20676      -11.93153
N         -9.23495        8.65055      -12.37010
C         -8.61644        7.50569      -12.81009
C         -8.45686        4.11452      -13.42323
C         -8.36072        2.82049      -13.08874
H         -3.95643        3.61406        3.53992
H         -3.39000       -1.32776        4.18521
H         -1.55599        3.80707        5.10973
H         -7.12968       -0.33966       -0.01934
H         -5.23961        1.81398       -1.42905
H         -9.35400        0.42298        1.02220
H        -10.99866        0.88126        1.13248
H         -8.69487        2.11080        2.75373
H         -9.96533        1.03435        3.34535
H        -10.36005        2.68488        2.84263
H        -12.78813        3.92478        0.40656
H        -12.17908        2.62476        1.33926
H        -13.17297        2.40573       -1.56439
H        -13.96860        1.77295       -0.11298
H        -12.45237        1.05996       -0.68269
H        -11.07764        7.02290       -3.25167
H        -13.51580        4.84123       -1.36484
H        -12.78782        7.75905       -1.95538
H        -15.30723        6.95856       -0.67329
H        -17.47760        8.18779       -1.58258
H        -18.47673        8.85920       -3.82032
H        -19.00467        8.78227       -6.17821
H        -19.00667        8.16147       -8.63811
H        -17.40715        7.06655      -10.39506
H        -14.01562        4.68957      -12.26287
H        -11.13776        8.83858      -11.51229
H         -7.61144        7.59013      -13.20266
H         -7.73272        4.53534      -14.11624
H         -9.02225        2.34356      -12.37225
H         -7.58488        2.19772      -13.52156
