96

C          8.03591        4.29489       -6.57073
C          9.19339        4.91541       -6.90559
C         10.36921        4.83077       -6.11325
N         11.33569        4.76748       -5.46210
C          9.35047        5.66838       -8.10712
N          9.48577        6.29026       -9.07878
C          7.82404        3.38622       -5.39557
C          6.62389        2.69695       -5.58404
C          6.10453        1.76115       -4.69568
C          6.84550        1.47929       -3.52996
C          8.04903        2.16798       -3.31795
C          8.54823        3.13684       -4.23146
S          8.79035        1.66700       -1.83692
C          7.55354        0.56398       -1.51323
C          6.56773        0.55998       -2.46223
Br         7.53240       -0.54760       -0.00527
C          5.96368        3.11364       -6.82341
O          4.96312        2.59736       -7.27372
C          6.78264        4.25159       -7.36660
C          6.30436        5.07383       -8.31431
C          5.00740        4.89766       -8.96120
N          5.01406        4.20568      -10.11000
C          3.80732        3.95958      -10.64177
C          2.63066        4.39313      -10.08207
C          2.73712        5.11561       -8.90640
N          3.92724        5.41418       -8.34521
C          1.55278        5.63233       -8.19949
C          0.36461        5.00637       -8.17905
N         -0.79179        5.40763       -7.54268
C         -2.00110        4.76873       -7.48102
S         -2.33058        3.26188       -8.27221
C         -3.90361        3.20899       -7.67345
N         -4.71891        2.07532       -7.96248
O         -5.18049        1.47074       -6.98661
O         -4.92453        1.81381       -9.15383
C         -4.23975        4.29034       -6.90049
C         -3.13776        5.19887       -6.79505
C         -3.19572        6.41041       -6.02675
C         -3.62366        7.57999       -6.53163
C         -3.72200        8.80713       -5.79001
S         -2.74771        9.14614       -4.39382
C         -3.42212       10.72483       -4.11888
C         -4.42554       10.94684       -5.04320
C         -4.52624        9.90680       -6.04269
C         -5.37909        9.98170       -7.16261
C         -6.20629       11.12335       -7.19193
C         -7.19039       11.39071       -8.30309
O         -7.80909       12.46181       -8.26136
C         -7.42701       10.39634       -9.44100
F         -6.69462        9.25125       -9.40620
F         -8.72694        9.98713       -9.48463
F         -7.16527       10.95354      -10.65788
C         -6.13085       12.11644       -6.15193
C         -5.20868       12.10091       -5.07728
C         -2.78060       11.57232       -3.15325
C         -3.06249       11.63074       -1.84236
C         -2.06051       12.23528       -0.87832
O         -1.19071       13.03959       -1.12155
C         -2.32485       11.56857        0.42530
C         -1.69114       11.76895        1.64413
C         -2.10351       10.98874        2.74419
C         -3.05415        9.94044        2.54862
C         -3.42508        9.12324        3.62548
C         -2.93255        9.38251        4.89813
C         -2.05782       10.43810        5.11023
C         -1.62317       11.22617        4.04470
F         -1.63219       10.71644        6.34987
F         -3.33411        8.61789        5.92264
C         -3.66723        9.76416        1.29961
C         -3.37008       10.64630        0.27445
C         -4.05132       10.95193       -1.01337
C         -5.39814       11.09000       -1.06268
C         -6.04953       12.06508       -1.87045
N         -6.63763       12.90846       -2.40589
C         -6.26726       10.46371       -0.12232
N         -6.96301        9.94044        0.63999
H          5.15778        1.26953       -4.90153
H          9.47290        3.64455       -3.98453
H          5.68972       -0.07392       -2.42082
H          6.83227        5.94002       -8.68825
H          3.81037        3.37236      -11.55555
H          1.68143        4.16711      -10.54824
H          1.70818        6.55607       -7.65266
H          0.25852        4.05900       -8.70162
H         -0.69090        6.28686       -7.03903
H         -5.21001        4.42026       -6.43395
H         -2.89246        6.32570       -4.98703
H         -3.96166        7.58709       -7.56713
H         -5.36220        9.22349       -7.92535
H         -6.82040       12.96575       -6.18448
H         -5.16461       12.91390       -4.36600
H         -1.88693       12.08633       -3.51123
H         -0.92788       12.53593        1.74577
H         -4.12636        8.30219        3.49938
H         -0.93736       12.04275        4.25488
H         -4.41382        8.98502        1.16981
