113

C         -8.84495       -3.61436       -7.33205
C         -8.76149       -4.77127       -6.63775
C         -8.97432       -6.04302       -7.23980
N         -9.16942       -7.07387       -7.73451
C         -8.37861       -4.79487       -5.26146
N         -8.05454       -4.80288       -4.15345
C         -9.02591       -3.45858       -8.79737
C         -8.48842       -2.21903       -9.16894
C         -8.49412       -1.73690      -10.46789
C         -9.15765       -2.51349      -11.44465
C         -9.74637       -3.73175      -11.06478
C         -9.67945       -4.23552       -9.74319
S        -10.55642       -4.47329      -12.39904
C        -10.14043       -3.20933      -13.43590
C         -9.38887       -2.23620      -12.83476
Br       -10.66947       -3.14003      -15.23086
C         -8.10003       -1.44388       -7.97382
O         -7.56450       -0.35683       -7.93999
C         -8.59339       -2.25667       -6.82826
C         -9.05502       -1.71007       -5.69738
N         -9.10212       -0.39356       -5.27942
C         -9.65907        0.07974       -4.11953
S        -10.40719       -0.97009       -2.95783
C        -10.80514        0.30512       -1.94307
N        -11.53021        0.01326       -0.75155
O        -12.61361        0.59351       -0.61143
O        -11.01720       -0.78600        0.04155
C        -10.41043        1.53124       -2.41253
C         -9.73353        1.39873       -3.67308
C         -9.24364        2.52400       -4.41257
C         -7.99979        3.02769       -4.30984
C         -7.51942        4.19338       -5.07920
C         -6.15122        4.30998       -5.40224
C         -5.71744        5.43133       -6.10763
C         -6.64053        6.41995       -6.51279
C         -7.97832        6.33148       -6.17983
C         -8.40899        5.22523       -5.45007
C         -5.95094        7.47668       -7.21079
C         -4.56783        7.21116       -7.20705
C         -4.30208        5.84178       -6.55474
C         -3.31077        6.00033       -5.36818
C         -3.77674        6.91428       -4.23253
C         -3.71010        4.85651       -7.60596
C         -4.59556        4.56772       -8.82090
C         -3.66409        8.13937       -7.71079
C         -4.16956        9.32233       -8.26462
C         -5.55752        9.54636       -8.32897
C         -6.45623        8.62474       -7.79411
C         -3.27092       10.35798       -8.76730
C         -2.86551       11.37306       -7.99025
C         -2.03814       12.43723       -8.47988
C         -0.82594       12.83670       -8.08017
C          0.01237       12.30671       -7.02122
C          1.22323       12.86509       -6.81658
C          1.71072       13.96725       -7.63807
C          0.97574       14.49030       -8.63769
C         -0.35640       13.96248       -8.88205
C         -1.28507       14.34950       -9.76687
C         -2.39547       13.37380       -9.58023
O         -3.43486       13.35704      -10.21928
C         -1.28386       15.38929      -10.76448
C         -0.62128       16.54760      -10.62688
C         -0.56828       17.58027      -11.63387
C          0.43728       18.45448      -11.80148
C          0.42483       19.48963      -12.80322
C          1.52858       20.24764      -12.81036
C          2.51837       19.86945      -11.81384
S          1.93679       18.47720      -10.89814
C          3.69811       20.48694      -11.60061
C          4.18994       21.64896      -12.32336
C          5.37915       22.09732      -11.89929
C          5.92315       21.32326      -10.81470
S          4.87516       20.00330      -10.37421
C          7.08378       21.56844      -10.20162
H         -8.06544       -0.76668      -10.70238
H        -10.18542       -5.16425       -9.49954
H         -9.03414       -1.34645      -13.34085
H         -9.55397       -2.37428       -4.99911
H         -8.68113        0.27160       -5.93714
H        -10.58934        2.46440       -1.89048
H         -9.96118        2.98146       -5.09089
H         -7.27643        2.56950       -3.63931
H         -5.44384        3.53828       -5.11225
H         -8.67844        7.11366       -6.45198
H         -9.45694        5.19045       -5.16335
H         -2.35870        6.39733       -5.74701
H         -3.07357        5.01880       -4.93759
H         -2.91083        7.33265       -3.70804
H         -4.38184        7.75601       -4.57990
H         -4.36442        6.35103       -3.50115
H         -3.47778        3.89652       -7.12675
H         -2.75457        5.25144       -7.97813
H         -5.49156        4.00777       -8.53640
H         -4.04790        3.95979       -9.54913
H         -4.90638        5.48385       -9.33153
H         -2.59466        7.96081       -7.65969
H         -5.94207       10.45612       -8.78583
H         -7.52237        8.81785       -7.82899
H         -2.98958       10.28177       -9.81345
H         -3.16703       11.43549       -6.94662
H         -0.33654       11.48359       -6.41001
H          1.88039       12.50100       -6.03291
H          2.70216       14.35843       -7.43023
H          1.38234       15.28882       -9.24440
H         -1.84867       15.17798      -11.67116
H         -0.07874       16.76339       -9.71073
H         -1.43648       17.63965      -12.28601
H         -0.40898       19.63241      -13.47644
H          1.66327       21.06809      -13.49921
H          3.64602       22.12116      -13.12817
H          5.88741       22.95437      -12.31887
H          7.71473       22.40136      -10.49278
H          7.43556       20.94375       -9.38653
