87

C        -20.54354       -8.10951       -3.36875
C        -19.89513       -8.99844       -2.58427
C        -20.16989      -10.40048       -2.61736
N        -20.39649      -11.53623       -2.65195
C        -18.93161       -8.60820       -1.60698
N        -18.13665       -8.30446       -0.81566
C        -21.66383       -8.41036       -4.31569
C        -22.34903       -7.22037       -4.57231
C        -23.41792       -7.10287       -5.44938
C        -23.79460       -8.25381       -6.16861
C        -23.10921       -9.45573       -5.92961
C        -22.04875       -9.56087       -4.99157
S        -23.71455      -10.72008       -6.94218
C        -24.80620       -9.67940       -7.70021
C        -24.78429       -8.40721       -7.19675
Br       -25.92568      -10.20896       -9.10477
C        -21.70072       -6.08699       -3.90812
O        -22.13869       -4.95484       -3.88320
C        -20.42231       -6.63079       -3.34625
C        -19.34148       -5.86836       -3.11422
C        -19.24692       -4.41614       -3.23405
C        -18.14423       -3.68021       -3.03106
C        -18.09689       -2.23427       -3.06362
C        -16.93881       -1.72253       -2.61720
C        -15.96825       -2.72995       -2.23311
S        -16.58621       -4.33494       -2.63892
C        -14.78254       -2.54922       -1.62319
C        -14.19056       -1.32021       -1.13673
C        -13.04553       -1.50151       -0.45433
C        -12.62694       -2.88876       -0.36247
S        -13.71481       -3.88984       -1.27799
C        -11.53172       -3.32700        0.28631
C        -11.06917       -4.67489        0.29658
S        -12.00947       -6.13643        0.32457
C        -10.66130       -7.16157       -0.06866
C         -9.54865       -6.39999        0.07097
C         -9.77530       -5.05784        0.28988
O         -8.68348       -4.24851        0.39672
C         -7.69114       -5.19874        0.24279
N         -6.35126       -4.69917        0.34551
O         -5.44345       -5.52542        0.18048
O         -6.19872       -3.49535        0.58868
C         -8.14653       -6.50171        0.00222
C        -10.86993       -8.51590       -0.43970
C        -10.90547       -9.51974        0.44576
C        -10.99652      -10.92031        0.09671
C        -10.62990      -11.73404        1.10074
C        -10.22759      -11.01344        2.29975
S        -10.72317       -9.32923        2.16619
C         -9.46934      -11.47260        3.31181
C         -8.90656      -12.80162        3.44299
C         -7.97818      -12.90042        4.40627
C         -7.72996      -11.65508        5.10514
S         -8.87729      -10.43903        4.61594
C         -6.71801      -11.45986        5.96348
C         -6.40370      -10.18090        6.50723
O         -5.46448       -9.37234        5.91606
C         -5.35530       -8.18703        6.59634
C         -6.23276       -8.24970        7.66304
C         -6.88064       -9.52319        7.63602
C         -7.85236      -10.01034        8.64192
F         -8.33273      -11.25231        8.38271
F         -7.28369      -10.06952        9.87658
F         -8.92440       -9.18463        8.75370
C         -4.47927       -7.13122        6.22906
C         -3.37804       -7.37003        5.50709
H        -23.89111       -6.13955       -5.61987
H        -21.54150      -10.51319       -4.88130
H        -25.41337       -7.60121       -7.55620
H        -18.41214       -6.35849       -2.83643
H        -20.15851       -3.87775       -3.47741
H        -18.93591       -1.63604       -3.38954
H        -16.74289       -0.66217       -2.54978
H        -14.64131       -0.35059       -1.29239
H        -12.47312       -0.69489       -0.01614
H        -10.88703       -2.59166        0.76448
H         -7.53373       -7.37537       -0.17096
H        -10.95081       -8.72456       -1.50231
H        -11.27598      -11.26199       -0.89048
H        -10.58164      -12.80974        1.00521
H         -9.17855      -13.62421        2.79699
H         -7.42477      -13.80535        4.61683
H         -6.02699      -12.26516        6.18855
H         -6.37081       -7.47398        8.40559
H         -4.70452       -6.12243        6.56197
H         -3.11189       -8.37065        5.17844
H         -2.70541       -6.56194        5.23938
