96

C         -3.61737       -1.42952       -2.44312
C         -2.28292       -1.57742       -2.33870
C         -1.69144       -2.82700       -2.01858
N         -1.23489       -3.86496       -1.76033
C         -1.40675       -0.53007       -2.71133
N         -0.70164        0.32279       -3.05025
C         -4.58860       -2.54583       -2.38493
C         -5.50994       -2.35178       -3.41013
C         -6.67286       -3.12210       -3.52835
C         -7.00733       -3.95638       -2.41765
C         -6.04074       -4.17373       -1.42167
C         -4.78275       -3.52993       -1.42561
S         -6.62615       -5.23957       -0.19443
C         -8.19025       -5.20049       -0.82407
C         -8.27542       -4.53199       -2.01917
Br        -9.65654       -5.97195        0.05357
C         -5.18959       -1.03230       -4.06350
O         -5.37287       -0.76725       -5.23048
C         -4.34421       -0.27366       -3.02909
C         -4.34296        0.98054       -2.45970
C         -5.12841        2.27115       -2.57343
C         -4.49529        3.46650       -2.99900
C         -5.16521        4.71142       -2.99826
N         -4.37133        5.81097       -3.30389
C         -3.13311        5.42907       -3.48872
S         -2.85509        3.74399       -3.48714
C         -6.52508        4.74683       -2.63247
C         -7.08443        3.63003       -2.01609
C         -6.34763        2.44018       -1.85321
N         -6.91746        1.59348       -0.90223
C         -8.09529        2.03533       -0.52350
S         -8.64144        3.45396       -1.27934
C         -7.34304        5.98453       -2.70230
C         -7.00587        7.14414       -2.11861
C         -7.75393        8.39392       -2.05706
C         -8.38013        9.05446       -3.05606
C         -8.62318        8.46386       -4.41075
C         -8.80507       10.49654       -2.90729
N         -7.95286       11.46909       -3.61170
C         -6.93333       11.29102       -4.53618
C         -5.96862       10.36450       -4.56842
C         -4.92761       10.19407       -5.56932
C         -4.87266        9.17443       -6.44860
C         -3.68382        8.74229       -7.15042
C         -3.75291        7.45796       -7.55233
C         -5.01404        6.80480       -7.20620
S         -6.16534        8.05826       -6.77638
C         -5.28633        5.48408       -7.11368
C         -4.38289        4.38639       -7.39714
C         -4.84540        3.18069       -7.02791
C         -6.18580        3.19281       -6.43515
S         -6.81536        4.82402       -6.47956
C         -6.79607        2.08801       -5.93928
C         -8.15433        1.78251       -5.36763
C         -9.40574        2.28262       -5.82876
O         -9.29010        3.07228       -6.94576
C        -10.35760        3.90292       -7.35198
C        -10.65889        1.88559       -5.24628
O        -11.78270        2.68335       -5.33920
C        -12.28290        2.99775       -4.02368
C        -10.82832        0.73110       -4.47978
C         -9.65458        0.26388       -3.92273
C         -8.31013        0.81108       -4.31691
N         -7.38321        0.27331       -3.52087
S         -8.13359       -0.64956       -2.36309
N         -9.65301       -0.65624       -2.95033
H         -7.41742       -2.89590       -4.29010
H         -4.08984       -3.68931       -0.60625
H         -9.20879       -4.38584       -2.55172
H         -3.62181        1.11344       -1.66062
H         -2.33379        6.14348       -3.63884
H         -8.72222        1.50240        0.17516
H         -8.30015        5.88337       -3.21078
H         -6.05968        7.19875       -1.58051
H         -7.63580        8.90888       -1.10301
H         -9.40922        7.70655       -4.38744
H         -7.70949        7.99108       -4.74920
H         -8.91231        9.21993       -5.14909
H         -8.83891       10.78695       -1.85027
H         -9.83271       10.60764       -3.27705
H         -8.44437       12.35019       -3.75012
H         -6.94808       12.06778       -5.29987
H         -5.90855        9.63493       -3.76568
H         -4.04808       10.81048       -5.40420
H         -2.80852        9.37046       -7.25291
H         -2.93412        6.94392       -8.03424
H         -3.41622        4.53450       -7.86321
H         -4.29079        2.26477       -7.17178
H         -6.19295        1.18590       -5.98451
H        -10.41262        4.77737       -6.69786
H        -11.31139        3.37922       -7.42301
H        -10.12803        4.24745       -8.36422
H        -12.71488        2.12156       -3.52332
H        -13.08712        3.72666       -4.12769
H        -11.49564        3.42769       -3.39085
H        -11.77961        0.33959       -4.15290
