106

C          0.39819        4.69247       -0.54156
C          0.71733        5.25589        0.65228
C          0.65353        4.55016        1.88962
N          0.60578        3.99480        2.89833
C          1.10246        6.61818        0.80029
N          1.41737        7.72309        0.93888
C         -0.06572        3.28247       -0.76245
C         -0.41562        3.13193       -2.10633
C         -0.89527        1.95163       -2.66345
C         -1.01846        0.82725       -1.82003
C         -0.65620        0.95736       -0.47169
C         -0.17898        2.17732        0.07676
S         -0.86439       -0.53731        0.37275
C         -1.41647       -1.32002       -1.01708
C         -1.46066       -0.50685       -2.11719
Br        -1.91549       -3.12521       -1.05028
C         -0.17443        4.37004       -2.85793
O         -0.36372        4.52716       -4.04766
C          0.36729        5.35639       -1.87049
C          0.74676        6.57437       -2.28774
N          0.62871        7.16117       -3.53668
C          0.98759        8.43892       -3.87242
S          2.43588        9.15799       -3.25488
C          2.15646       10.58968       -4.09155
N          3.07756       11.66290       -3.92655
O          3.67612       12.03603       -4.94249
O          3.17764       12.14829       -2.79382
C          1.03642       10.56635       -4.88324
C          0.32988        9.32487       -4.72974
C         -0.93398        9.07319       -5.37351
C         -1.91889        8.32929       -4.84673
C         -3.15943        8.00928       -5.50493
C         -4.29504        7.68370       -4.85503
C         -4.47881        7.76874       -3.36341
C         -5.50208        7.20072       -5.60997
N         -6.31640        8.34189       -5.96264
C         -6.24912        8.99925       -7.16504
C         -6.98906       10.04680       -7.55009
C         -6.84058       10.67299       -8.82371
S         -5.32358       10.69616       -9.62545
C         -5.85997       11.75652      -10.85628
C         -7.20150       12.07266      -10.67419
C         -7.79160       11.35733       -9.57018
C         -9.26761       11.45673       -9.25614
C        -10.09815       12.08823      -10.39777
C        -10.39286       11.10755      -11.52907
O        -10.44031       11.40293      -12.71614
O        -10.62623        9.86369      -11.03032
C        -10.53689        8.79872      -11.97390
C         -9.39145       13.34834      -10.91350
C         -8.00015       13.05954      -11.47374
C         -4.87887       12.17062      -11.80563
C         -5.19868       12.59584      -13.03327
C         -4.21939       13.03889      -13.99372
C         -4.46426       13.88262      -15.00477
C         -5.65661       14.62801      -15.42601
C         -6.48821       15.35716      -14.64188
C         -7.62954       16.04647      -15.13953
N         -8.57945       16.58626      -15.54057
C         -6.18955       15.61659      -13.26796
N         -5.94624       15.89983      -12.17445
C         -5.54842       14.78109      -16.90315
C         -4.22677       14.49241      -17.26671
C         -3.47309       13.95846      -16.11939
O         -2.31178       13.60847      -16.11517
C         -3.71534       14.68989      -18.54030
C         -4.58513       15.23366      -19.51090
C         -5.92731       15.46440      -19.16774
C         -6.44103       15.21236      -17.87367
S         -6.81147       16.10765      -20.50431
C         -5.43336       16.14682      -21.47575
C         -4.32059       15.63493      -20.86437
Br        -5.43049       16.83133      -23.21838
H         -1.14807        1.89903       -3.71851
H          0.09243        2.18810        1.12497
H         -1.78373       -0.83360       -3.09827
H          1.19096        7.27550       -1.59332
H          0.03637        6.62695       -4.18402
H          0.71142       11.40376       -5.49110
H         -1.11430        9.57631       -6.32312
H         -1.79461        7.88856       -3.86160
H         -3.13648        7.97926       -6.59425
H         -3.77690        8.46358       -2.89180
H         -4.35683        6.78135       -2.90856
H         -5.48115        8.13895       -3.12263
H         -6.08869        6.51180       -4.99209
H         -5.21153        6.63228       -6.50296
H         -6.69634        8.87928       -5.18997
H         -5.50669        8.56248       -7.83082
H         -7.74814       10.43573       -6.87815
H         -9.38725       12.07342       -8.35754
H         -9.64426       10.45993       -9.00182
H        -11.07678       12.38212      -10.00020
H         -9.48814        8.66255      -12.25637
H        -11.15911        8.97126      -12.85603
H        -10.87709        7.88617      -11.47600
H         -9.30045       14.06423      -10.08608
H         -9.98467       13.84961      -11.68930
H         -7.45626       14.00407      -11.48489
H         -8.10020       12.71137      -12.50554
H         -3.83256       12.13866      -11.50271
H         -6.22575       12.58530      -13.37270
H         -3.23938       12.56453      -13.92186
H         -2.67480       14.46940      -18.76074
H         -7.48908       15.40517      -17.67516
H         -3.34721       15.56995      -21.33524
