92

C         -8.90792       -7.73351        8.91545
C         -7.72904       -8.31938        8.59772
C         -7.60230       -9.69572        8.26900
N         -7.50647      -10.80810        7.95119
C         -6.49752       -7.59428        8.62022
N         -5.49470       -7.02279        8.70098
C        -10.14455       -8.44741        9.36546
C        -11.04761       -7.50063        9.85587
C        -12.24343       -7.81821       10.49358
C        -12.53382       -9.18410       10.70355
C        -11.64195      -10.14366       10.20337
C        -10.45560       -9.79689        9.50724
S        -12.16748      -11.74428       10.58999
C        -13.50615      -11.16713       11.43929
C        -13.62099       -9.80298       11.41159
Br       -14.70621      -12.28703       12.34152
C        -10.52241       -6.13703        9.69742
O        -11.08719       -5.12696       10.06390
C         -9.18374       -6.28059        9.03215
C         -8.53727       -5.24249        8.47360
C         -8.98432       -3.85786        8.48478
C         -9.24165       -3.13063        7.38634
C         -9.75529       -1.78228        7.37443
C        -10.12644       -1.35343        6.15669
C         -9.94456       -2.34147        5.11084
S         -9.09407       -3.74036        5.76714
C        -10.39019       -2.28280        3.84149
C        -11.14561       -1.22198        3.20547
C        -11.51846       -1.49449        1.94329
C        -11.07302       -2.78885        1.46525
S        -10.17512       -3.60499        2.71568
C        -11.34605       -3.29381        0.24758
C        -10.89111       -4.56589       -0.23135
S        -11.81311       -5.42513       -1.38877
C        -10.74472       -6.78490       -1.40589
C        -11.12216       -7.94017       -2.19682
O        -10.82082       -9.11392       -2.03266
O        -11.92705       -7.62461       -3.23997
C         -9.67810       -6.58464       -0.53823
C         -9.73981       -5.27951        0.04447
C         -8.51801       -7.53190       -0.27500
S         -7.92389       -8.58919       -1.47722
C         -6.53758       -9.08455       -0.57946
C         -6.61944       -8.54741        0.69351
C         -7.75279       -7.65373        0.87318
C         -8.02686       -7.02820        2.10163
C         -7.05183       -7.27183        3.10310
C         -7.20758       -6.58547        4.43221
C         -5.94527       -8.15251        2.91072
C         -5.69154       -8.83959        1.70578
C         -5.60043      -10.01597       -1.13082
C         -5.26517      -10.13870       -2.42455
C         -5.64761       -9.44821       -3.66228
C         -5.63345       -8.11519       -3.90544
C         -5.97724       -7.56025       -5.16753
N         -6.27389       -7.11339       -6.19923
C         -5.15197       -7.16664       -2.95379
N         -4.71365       -6.36282       -2.24789
C         -5.68215      -10.48868       -4.72421
C         -4.94124      -11.58278       -4.26776
C         -4.59554      -11.41326       -2.84297
O         -3.95952      -12.18543       -2.15740
C         -4.62647      -12.67735       -5.05946
C         -5.10542      -12.68129       -6.39029
C         -5.91761      -11.62009       -6.82227
C         -6.23864      -10.51895       -5.99508
S         -6.42649      -11.84659       -8.45699
C         -5.55334      -13.28301       -8.59439
C         -4.89816      -13.63494       -7.44480
Br        -5.49428      -14.29551      -10.16858
H        -12.89439       -7.03447       10.87208
H         -9.80968      -10.59935        9.17349
H        -14.41808       -9.25445       11.89896
H         -7.64545       -5.39649        7.86992
H         -9.17417       -3.42736        9.46586
H         -9.85737       -1.19656        8.27683
H        -10.55681       -0.38011        5.97419
H        -11.39905       -0.30044        3.70987
H        -12.09690       -0.81767        1.32840
H        -11.98090       -2.71778       -0.42275
H        -12.13017       -8.49609       -3.63574
H         -8.95094       -4.87920        0.66725
H         -8.89127       -6.41171        2.30631
H         -7.59336       -5.57805        4.26931
H         -6.24418       -6.47633        4.94060
H         -7.89303       -7.14478        5.07639
H         -5.24875       -8.30323        3.73765
H         -4.84768       -9.51088        1.60997
H         -5.19859      -10.74612       -0.42718
H         -4.02256      -13.49025       -4.66646
H         -6.87913       -9.73331       -6.38139
H         -4.28980      -14.52555       -7.34481
