92

C         -2.19974        1.71828        1.00320
C         -2.07720        0.37061        0.91779
C         -0.96310       -0.26646        0.30357
N         -0.05405       -0.79244       -0.19291
C         -3.03394       -0.52805        1.47504
N         -3.82134       -1.25784        1.91698
C         -1.21253        2.74155        0.52013
C         -1.56725        3.98010        1.05885
C         -0.91460        5.17619        0.78255
C          0.19291        5.13425       -0.08851
C          0.58497        3.89464       -0.61631
C         -0.11142        2.68658       -0.33219
S          1.98667        4.07026       -1.61677
C          2.06234        5.73347       -1.33343
C          1.03857        6.19796       -0.55362
Br         3.42248        6.83383       -2.00384
C         -2.74895        3.86198        1.91728
O         -3.15614        4.73168        2.65870
C         -3.27547        2.47018        1.70137
C         -4.55093        2.12818        1.96064
C         -5.49385        3.03988        2.49901
S         -6.48295        3.99709        1.44297
C         -7.23694        4.90348        2.74444
C         -6.75502        4.37398        3.91237
C         -5.83024        3.36199        3.77865
O         -5.39346        2.95799        4.98168
C         -6.07751        3.78202        5.86549
S         -5.87012        3.73811        7.49589
O         -6.94149        4.65788        5.21409
C         -8.15586        5.97373        2.52365
C         -8.51708        6.38699        1.29810
C         -9.43055        7.48508        1.06657
C         -9.13824        8.59485        0.37291
C        -10.07712        9.65496        0.09457
C         -9.64930       10.51265       -0.84406
C         -8.33801       10.18166       -1.37403
S         -7.59954        8.92018       -0.38108
C         -7.79732       10.63459       -2.52032
C         -8.40624       11.52623       -3.48928
C         -7.84169       11.44942       -4.70661
C         -6.74256       10.50160       -4.77027
S         -6.26367       10.06479       -3.15324
C         -6.21265       10.03117       -5.91215
C         -5.17560        9.05160       -6.01425
S         -4.07509        9.09745       -7.38644
C         -3.18637        7.68172       -6.89012
C         -3.75853        7.21854       -5.74355
C         -4.80954        7.96434       -5.26410
O         -5.27769        7.41002       -4.13248
C         -4.45665        6.31630       -3.92426
S         -4.62108        5.27844       -2.65941
O         -3.51713        6.17005       -4.93697
C         -2.08752        7.20404       -7.64698
C         -0.85020        7.64783       -7.37590
C          0.33452        7.22550       -8.08610
C          0.83934        5.99025       -8.22019
C          0.46490        4.65134       -7.73372
C         -0.07561        4.33994       -6.52978
C         -0.38610        3.00528       -6.13620
N         -0.65462        1.92589       -5.81791
C         -0.26804        5.30736       -5.49568
N         -0.38623        6.05552       -4.62120
C          1.06610        3.67005       -8.69631
C          1.94290        4.36299       -9.53812
C          1.91126        5.80441       -9.25139
O          2.59636        6.65320       -9.78262
C          2.73114        3.76160      -10.51421
C          2.66442        2.35649      -10.63867
C          1.78373        1.65026       -9.80549
C          0.95854        2.29089       -8.84384
S          1.87159       -0.04968      -10.10861
C          3.05174        0.15727      -11.29685
C          3.38443        1.46813      -11.51014
Br         3.82959       -1.26999      -12.22811
H         -1.25981        6.10974        1.21872
H          0.23759        1.77234       -0.79810
H          0.90384        7.23990       -0.28796
H         -4.96157        1.16354        1.68804
H         -8.56474        6.47032        3.40170
H         -8.13988        5.91091        0.39495
H        -10.43501        7.34142        1.45645
H        -11.04535        9.71162        0.57134
H        -10.24170       11.33916       -1.20750
H         -9.25791       12.15204       -3.26501
H         -8.18416       12.00886       -5.56654
H         -6.61860       10.40095       -6.85255
H         -2.27770        6.47847       -8.43232
H         -0.69077        8.41352       -6.61496
H          0.84624        8.05456       -8.58282
H          3.38905        4.35713      -11.14163
H          0.29661        1.67629       -8.24539
H          4.11897        1.79357      -12.23732
