138

C         -1.38308       -0.68393        0.05666
C         -2.04651       -1.64869       -0.63366
C         -1.59220       -2.99564       -0.71119
N         -1.22182       -4.09499       -0.77382
C         -3.28963       -1.38979       -1.27852
N         -4.30713       -1.17852       -1.80752
C         -0.16315       -0.87562        0.90311
C         -0.07871        0.20629        1.78643
C          0.95988        0.39213        2.68879
C          1.98250       -0.58080        2.72434
C          1.89627       -1.68313        1.85892
C          0.83466       -1.84512        0.92957
S          3.23114       -2.75796        2.09607
C          3.90158       -1.76873        3.28859
C          3.16910       -0.63872        3.53190
Br         5.49126       -2.17724        4.19172
C         -1.20321        1.13509        1.58865
O         -1.55477        1.99375        2.36863
C         -1.83167        0.71047        0.29519
C         -2.47272        1.55198       -0.53669
C         -2.76770        2.98658       -0.36097
C         -3.98359        3.36960        0.20089
C         -4.33496        4.71784        0.17204
C         -3.49352        5.71530       -0.37063
C         -2.26936        5.34382       -0.89936
C         -1.91798        3.97638       -0.90459
C         -4.17819        7.00073       -0.30413
C         -5.45895        6.80225        0.25320
C         -5.65553        5.33341        0.62875
C         -6.85794        4.71721       -0.13722
C         -6.74005        4.72138       -1.66368
C         -5.84644        5.15359        2.15993
C         -4.66605        5.58594        3.03389
C         -6.37167        7.84322        0.40174
C         -5.99496        9.14208        0.04289
C         -4.71845        9.33976       -0.52934
C         -3.80538        8.27578       -0.69981
C         -6.90025       10.29159        0.25725
C         -7.75896       10.36862        1.29176
C         -8.65527       11.50433        1.51706
C         -8.33242       12.63000        2.33572
N         -7.25133       13.00236        3.15804
C         -6.19344       12.07991        3.54739
C         -6.46194       11.38748        4.87915
C         -7.41035       14.30810        3.66421
C         -8.71185       14.68189        3.28428
C         -9.26775       13.66258        2.46303
C        -10.52423       13.57490        1.82033
C        -10.85034       12.46467        1.05391
C         -9.92442       11.44613        0.90350
C         -9.26636       15.91124        3.70688
C         -8.53446       16.77880        4.49446
C         -7.23983       16.43965        4.84149
C         -6.61894       15.22914        4.42937
C         -5.20826       14.99585        4.80963
C         -4.33128       16.00301        4.97693
C         -2.93077       15.87100        5.34709
C         -2.08935       16.90455        5.52766
C         -0.73044       16.82151        6.01872
C         -0.27747       17.98893        6.51140
C         -1.26244       19.05917        6.43113
S         -2.53477       18.58028        5.31552
C         -1.33314       20.17845        7.17459
C         -0.41822       20.60064        8.21766
C         -0.91529       21.56517        9.00882
C         -2.26139       21.96500        8.65394
S         -2.72018       21.27149        7.12454
C         -3.07654       22.70148        9.42529
C         -4.50308       22.93449        9.14161
C         -4.92021       24.01012        8.34204
C         -6.27271       24.15109        8.04920
C         -7.20814       23.28669        8.64528
C         -8.56253       23.71851        8.33341
C         -8.47521       24.80997        7.55576
C         -7.07459       25.12065        7.25634
C         -6.64328       26.02053        6.34609
C         -5.28892       26.06019        5.79177
C         -5.18712       26.99058        4.83311
C         -6.47902       27.64752        4.72019
C         -7.39803       27.07653        5.62204
C         -8.67617       27.60722        5.71308
C         -9.03349       28.67038        4.87086
C         -8.11304       29.21232        3.96286
C         -6.81864       28.70225        3.88585
C         -6.81671       22.21659        9.43270
C         -5.45205       22.03226        9.66222
H          0.98574        1.26910        3.32960
H          0.84652       -2.70605        0.27030
H          3.44557        0.11811        4.25634
H         -2.80551        1.21028       -1.51371
H         -4.67572        2.63703        0.60380
H         -1.60497        6.07845       -1.34278
H         -0.98399        3.68419       -1.38027
H         -7.78108        5.24580        0.13317
H         -6.99691        3.67655        0.18187
H         -6.69958        5.73840       -2.06474
H         -7.61001        4.22396       -2.10386
H         -5.85284        4.18087       -2.00750
H         -6.04401        4.09611        2.37906
H         -6.73442        5.70766        2.48927
H         -3.78343        4.96226        2.85750
H         -4.92857        5.47836        4.09138
H         -4.39089        6.63073        2.86402
H         -7.36139        7.63426        0.79520
H         -4.41409       10.33989       -0.83537
H         -2.82651        8.46827       -1.12731
H         -6.81356       11.11661       -0.44718
H         -7.87941        9.55270        1.99872
H         -5.23871       12.60562        3.53989
H         -6.08422       11.32243        2.77552
H         -6.20581       12.03142        5.72669
H         -5.85418       10.47955        4.96101
H         -7.51308       11.09800        4.98625
H        -11.24274       14.38279        1.92960
H        -11.82343       12.40467        0.57472
H        -10.19959       10.58202        0.30045
H        -10.27987       16.17682        3.41979
H         -8.96633       17.71801        4.82798
H         -6.70274       17.15957        5.45751
H         -4.88217       13.98170        4.97586
H         -4.67501       17.02731        4.84500
H         -2.57581       14.85996        5.53563
H         -0.16909       15.89843        6.02810
H          0.69249       18.10992        6.97168
H          0.54898       20.14582        8.37046
H         -0.39687       21.96824        9.86827
H         -2.73510       23.08588       10.38213
H         -4.18419       24.71561        7.97918
H         -9.45981       23.22833        8.67316
H         -9.33669       25.30353        7.14323
H         -4.49296       25.37439        6.02476
H         -4.32863       27.20289        4.21852
H         -9.40293       27.24880        6.42876
H        -10.03509       29.09090        4.93115
H         -8.40587       30.04374        3.32634
H         -6.09496       29.12881        3.19962
H         -7.54582       21.53670        9.86016
H         -5.12661       21.18051       10.25592
