90

C        -12.27714       -9.59455       -6.37446
C        -11.98309      -10.52181       -5.42669
C        -10.86132      -11.40323       -5.51494
N         -9.95467      -12.12328       -5.57536
C        -12.74818      -10.69751       -4.23287
N        -13.35795      -10.87930       -3.26695
C        -11.48125       -9.33310       -7.62226
C        -11.96731       -8.17564       -8.23056
C        -11.47283       -7.63810       -9.41591
C        -10.41722       -8.31844      -10.05618
C         -9.91938       -9.48743       -9.46357
C        -10.43761      -10.01002       -8.24847
S         -8.64118      -10.16490      -10.41023
C         -8.76843       -8.94680      -11.57155
C         -9.73425       -8.02038      -11.28427
Br        -7.69589       -8.87567      -13.10547
C        -13.10371       -7.62658       -7.48997
O        -13.70027       -6.61833       -7.80974
C        -13.36308       -8.57223       -6.34636
C        -14.42195       -8.41308       -5.53219
C        -15.35472       -7.29456       -5.57092
C        -15.56718       -6.45363       -4.54658
C        -16.33818       -5.23484       -4.62462
C        -16.14765       -4.41442       -3.57873
C        -15.21816       -4.93733       -2.59114
S        -14.82245       -6.61412       -2.97984
C        -14.62718       -4.25805       -1.58995
C        -14.76950       -2.84859       -1.26907
C        -13.78451       -2.37557       -0.48493
C        -12.78840       -3.37831       -0.16649
S        -13.40159       -4.96704       -0.54764
C        -11.54778       -3.12113        0.28086
C        -10.44951       -4.09858        0.30774
C         -9.50363       -4.15540        1.32245
N         -8.43508       -5.00100        1.30047
C         -8.34215       -5.81825        0.21935
C         -9.29526       -5.76154       -0.79126
N        -10.33197       -4.89284       -0.78043
C         -7.15046       -6.67885        0.14245
S         -7.26283       -8.19618       -0.64904
C         -5.59690       -8.54833       -0.45836
C         -4.94924       -7.51445        0.20055
C         -5.85724       -6.45996        0.60041
C         -5.37602       -5.23527        1.33443
C         -3.94587       -5.38200        1.87070
C         -3.02107       -5.99360        0.80762
N         -1.62493       -5.98134        1.25941
C         -3.46963       -7.43328        0.48359
C         -5.11798       -9.77176       -1.00855
C         -4.22404      -10.54044       -0.37214
C         -3.73902      -11.78177       -0.93080
C         -3.33329      -12.84975       -0.21538
C         -3.42943      -12.93567        1.28811
C         -2.81730      -14.08876       -0.91486
N         -1.45346      -14.33132       -0.48118
C         -0.86086      -15.56303       -0.40728
C          0.38706      -15.82712       -0.01461
H        -11.90661       -6.73499       -9.83739
H        -10.00794      -10.92878       -7.86939
H         -9.96223       -7.16851      -11.91392
H        -14.62471       -9.09491       -4.71327
H        -15.81191       -7.07916       -6.53489
H        -16.95084       -4.98908       -5.48117
H        -16.59897       -3.43575       -3.50360
H        -15.55912       -2.22999       -1.67034
H        -13.68842       -1.33912       -0.19379
H        -11.25531       -2.10489        0.52507
H         -9.56165       -3.51070        2.19203
H         -9.25697       -6.39556       -1.66940
H         -6.03943       -5.01433        2.17687
H         -5.41183       -4.37833        0.64968
H         -3.95393       -6.01898        2.76612
H         -3.58185       -4.39668        2.18641
H         -3.08074       -5.38777       -0.10589
H         -1.53620       -6.51027        2.12676
H         -1.34714       -5.02604        1.48211
H         -3.24415       -8.09274        1.33197
H         -2.90184       -7.79992       -0.38091
H         -5.55124      -10.11443       -1.94473
H         -3.83144      -10.25175        0.59807
H         -3.70629      -11.82047       -2.01969
H         -3.78082      -12.01272        1.75773
H         -2.45575      -13.15967        1.73028
H         -4.13795      -13.71993        1.57349
H         -2.82754      -13.95758       -2.00324
H         -3.46487      -14.94448       -0.68708
H         -0.81417      -13.54958       -0.60115
H         -1.51636      -16.38332       -0.69340
H          1.06227      -15.05094        0.32639
H          0.75275      -16.84952        0.00201
