126

C        -10.04928        0.59281       -7.74537
C         -9.19729       -0.40669       -8.07606
C         -9.61180       -1.55492       -8.80798
N         -9.95991       -2.49477       -9.39962
C         -7.80182       -0.35614       -7.76769
N         -6.67266       -0.31608       -7.51409
C        -11.48584        0.71946       -8.13215
C        -11.86629        2.05618       -7.98396
C        -13.14906        2.53503       -8.21956
C        -14.13091        1.60289       -8.61941
C        -13.76126        0.25657       -8.76971
C        -12.44260       -0.20825       -8.52659
S        -15.11102       -0.70433       -9.26351
C        -16.14399        0.63009       -9.26387
C        -15.52730        1.79575       -8.89719
Br       -17.95774        0.52312       -9.71895
C        -10.75215        2.85776       -7.46118
O        -10.72517        4.06811       -7.40992
C         -9.70258        1.85997       -7.06458
C         -8.80998        2.07346       -6.08419
C         -8.72276        3.30768       -5.30090
C         -9.48850        3.43580       -4.13037
C         -9.42485        4.63104       -3.43160
C         -8.58198        5.67272       -3.87121
C         -7.81725        5.54676       -5.01825
C         -7.89771        4.35774       -5.74128
C         -8.72465        6.80151       -2.98819
C         -9.69093        6.51281       -2.00447
C        -10.21532        5.08306       -2.19583
C        -11.74663        5.07931       -2.46406
C        -12.20603        5.86337       -3.69391
C         -9.91114        4.20644       -0.94897
C         -8.43233        4.03514       -0.60210
C        -10.04365        7.46107       -1.05175
C         -9.39713        8.70920       -1.07153
C         -8.41742        8.96466       -2.05292
C         -8.07947        8.01879       -3.01521
C         -9.74966        9.71095       -0.05227
C         -9.22698       10.94656        0.01861
C         -9.56637       11.87215        1.04354
S         -8.35272       12.97420        1.55751
C         -9.35228       13.68983        2.75239
C        -10.60232       13.07799        2.76831
C        -10.75065       12.08970        1.72811
C        -12.05493       11.37412        1.48964
C        -13.25095       12.04833        2.16899
C        -13.79819       13.22256        1.35642
F        -13.12789       13.42852        0.20405
F        -15.08747       12.96775        1.01549
F        -13.80556       14.38411        2.04036
C        -12.88854       12.39725        3.62177
C        -11.72548       13.38400        3.72154
C         -8.79497       14.74179        3.54716
C         -9.56984       15.70597        4.06178
C         -9.12612       16.77088        4.93522
C         -9.92703       17.42533        5.79446
C         -9.50854       18.50736        6.65118
C        -10.48370       18.98581        7.44033
C        -11.76493       18.31812        7.27395
S        -11.61114       17.04421        6.06292
C        -12.91917       18.58061        7.92094
C        -13.15051       19.58762        8.94045
C        -14.38541       19.56117        9.46865
C        -15.23776       18.53062        8.91414
S        -14.41165       17.68821        7.62574
C        -16.49017       18.25499        9.32120
C        -17.34975       17.22037        8.77829
C        -17.03102       15.90236        8.75452
C        -18.04407       15.24531        7.97109
C        -18.09639       13.98378        7.51102
C        -19.18277       13.68852        6.60327
C        -19.42545       12.59023        5.86696
C        -20.61891       12.80441        5.03222
C        -21.14748       14.01593        5.32693
C        -20.24772       14.64582        6.26786
C        -20.21842       15.89636        6.76754
C        -19.06599       16.22885        7.59043
C        -18.64492       17.40265        8.09303
C        -21.18156       11.89347        4.06412
C        -20.44468       11.02854        3.35358
H        -13.38578        3.58470       -8.06722
H        -12.23556       -1.26765       -8.62670
H        -16.03256        2.75179       -8.82801
H         -8.14038        1.29983       -5.72284
H        -10.13740        2.63487       -3.79257
H         -7.19435        6.36134       -5.37120
H         -7.33205        4.26512       -6.66504
H        -12.27353        5.48513       -1.59015
H        -12.09656        4.04483       -2.57845
H        -11.92263        6.91811       -3.63304
H        -13.29691        5.81927       -3.77633
H        -11.79282        5.44586       -4.61699
H        -10.33833        3.20455       -1.08790
H        -10.41519        4.63360       -0.07137
H         -7.91224        3.44360       -1.36167
H         -8.33218        3.50432        0.35062
H         -7.91978        4.99564       -0.49833
H        -10.80551        7.23160       -0.31225
H         -7.88967        9.91150       -2.09427
H         -7.32298        8.24675       -3.75651
H        -10.46626        9.36918        0.68639
H         -8.47371       11.27827       -0.68631
H        -11.96261       10.36504        1.91078
H        -12.24273       11.25648        0.41549
H        -14.05142       11.29774        2.21099
H        -12.61118       11.47246        4.14587
H        -13.75829       12.80538        4.14832
H        -11.34552       13.38306        4.75000
H        -12.10950       14.38441        3.51137
H         -7.72503       14.73500        3.73921
H        -10.62618       15.72959        3.82360
H         -8.07607       17.04147        4.86351
H         -8.49671       18.88830        6.63965
H        -10.32803       19.79807        8.13548
H        -12.39317       20.29355        9.25106
H        -14.72367       20.23760       10.24185
H        -16.93916       18.84316       10.11747
H        -16.13679       15.43568        9.13418
H        -17.33986       13.24214        7.72763
H        -18.83069       11.69126        5.84534
H        -22.01825       14.47636        4.89000
H        -20.95887       16.64693        6.52602
H        -19.12551       18.36055        7.97114
H        -22.25388       11.94545        3.89225
H        -19.36563       10.96815        3.46117
H        -20.90446       10.37354        2.62131
