100

C        -11.09732        9.54839        2.98468
C        -11.59043        8.95150        4.09414
C        -12.40838        9.64221        5.03502
N        -13.09249       10.20619        5.78518
C        -11.41775        7.56398        4.34877
N        -11.26470        6.42773        4.55860
C        -11.32792       10.96521        2.56176
C        -11.07949       11.04658        1.18737
C        -11.09879       12.23065        0.46227
C        -11.31465       13.42907        1.17592
C        -11.59870       13.35876        2.54906
C        -11.63829       12.12963        3.26080
S        -11.83668       14.94157        3.20818
C        -11.40684       15.68045        1.75190
C        -11.21895       14.79115        0.72866
Br       -11.17555       17.52983        1.56164
C        -10.65530        9.74281        0.65510
O        -10.50228        9.44745       -0.51633
C        -10.42251        8.88058        1.84786
C         -9.59377        7.82623        1.78165
N         -8.92770        7.28069        0.68533
C         -8.06914        6.20636        0.66549
S         -7.94189        5.11987        2.02396
C         -6.64552        4.30253        1.34271
N         -5.94124        3.33503        2.11391
O         -4.72784        3.53400        2.26079
O         -6.58392        2.36893        2.54090
C         -6.35338        4.70344        0.07293
C         -7.20301        5.78351       -0.35547
C         -7.10091        6.38876       -1.66160
C         -6.26027        5.98144       -2.63278
C         -6.17260        6.60954       -3.92691
C         -6.34525        5.97828       -5.10599
C         -6.68968        4.52034       -5.25657
C         -6.19417        6.73296       -6.40532
N         -7.48933        7.27462       -6.77550
C         -7.65771        8.44079       -7.48635
C         -6.83036        8.98933       -8.38360
C         -7.10428       10.26598       -9.00266
C         -7.28003       10.47630      -10.31327
C         -7.53135       11.77135      -10.89520
C         -7.64197       11.74574      -12.23061
C         -7.48522       10.42009      -12.81072
S         -7.24517        9.23064      -11.53193
C         -7.49750       10.11616      -14.12301
C         -7.68031       11.05256      -15.21678
C         -7.57944       10.49863      -16.43269
C         -7.29870        9.08207      -16.39922
S         -7.26530        8.48558      -14.76015
C         -7.02694        8.34489      -17.48628
C         -6.71521        6.93209      -17.48532
C         -5.60350        6.34209      -17.94517
C         -5.64432        4.85111      -18.13517
O         -6.44212        4.05525      -17.68452
C         -4.55733        4.53964      -19.07826
C         -4.29116        3.29825      -19.63921
C         -3.26110        3.20363      -20.58401
C         -2.54676        4.37752      -20.96478
C         -1.52907        4.28045      -21.92609
C         -1.21660        3.04970      -22.49253
C         -1.90688        1.90602      -22.11720
C         -2.92506        1.97321      -21.17120
F         -1.59862        0.72286      -22.66599
F         -0.23870        2.97837      -23.40602
C         -2.85642        5.62056      -20.37492
C         -3.84177        5.70137      -19.39802
C         -4.34499        6.81866      -18.53895
C         -3.61604        7.90799      -18.19251
C         -3.96531        8.81707      -17.15778
N         -4.14283        9.60910      -16.32271
C         -2.34976        8.19589      -18.77003
N         -1.31882        8.43884      -19.24917
H        -10.86124       12.23388       -0.59723
H        -11.83551       12.15176        4.32721
H        -10.95491       15.07881       -0.28213
H         -9.32984        7.31683        2.70324
H         -9.11023        7.78934       -0.18571
H         -5.54861        4.25824       -0.50682
H         -7.77006        7.21554       -1.88829
H         -5.58278        5.14373       -2.49317
H         -5.94444        7.67515       -3.91266
H         -6.57396        3.95321       -4.32865
H         -6.03911        4.04736       -5.99973
H         -7.72779        4.41471       -5.58763
H         -5.81246        6.08037       -7.19820
H         -5.46184        7.54049       -6.27834
H         -8.23509        7.08556       -6.10944
H         -8.60241        8.92833       -7.24817
H         -5.92079        8.47828       -8.68701
H         -7.15113       11.10403       -8.31142
H         -7.61089       12.67122      -10.30112
H         -7.81651       12.63471      -12.81925
H         -7.86468       12.10660      -15.06878
H         -7.66636       11.05676      -17.35415
H         -7.05131        8.81510      -18.46669
H         -7.53368        6.30291      -17.12767
H         -4.88196        2.43347      -19.34590
H         -0.96236        5.15291      -22.24141
H         -3.44419        1.05700      -20.90134
H         -2.30939        6.49701      -20.70773
