95

C         -7.15357       -3.72729       -1.49893
C         -6.20504       -4.37371       -0.78168
C         -6.50440       -5.10567        0.39103
N         -6.75855       -5.69389        1.35694
C         -4.84241       -4.40459       -1.21308
N         -3.73252       -4.41121       -1.57112
C         -8.63897       -3.72133       -1.28382
C         -9.23066       -3.32992       -2.49476
C        -10.57575       -3.02345       -2.64513
C        -11.40587       -3.20112       -1.51445
C        -10.83680       -3.69349       -0.32744
C         -9.44387       -3.93904       -0.18362
S        -12.05229       -3.94411        0.87867
C        -13.27086       -3.35755       -0.13157
C        -12.81343       -2.95105       -1.35591
Br       -15.07382       -3.28166        0.37291
C         -8.19618       -3.27485       -3.53096
O         -8.26420       -3.74208       -4.64809
C         -6.95166       -3.02279       -2.77831
C         -6.04285       -2.07894       -3.04958
C         -6.05308       -1.10655       -4.09087
O         -5.15592       -0.03845       -3.96936
C         -6.73683       -0.84267       -5.25522
C         -7.83724       -1.23506       -6.10399
O         -8.94384       -1.62455       -5.77121
N         -7.57249       -0.65662       -7.31623
C         -6.82867        0.47775       -7.13258
O         -6.89318        1.47456       -7.82549
C         -6.17267        0.28958       -5.87158
C         -5.28238        0.86812       -5.00520
C         -4.56263        2.09023       -5.01003
C         -5.19895        3.26602       -4.88738
C         -4.57860        4.56472       -4.87608
C         -4.97730        5.46399       -3.90670
S         -4.10193        6.91293       -3.96999
C         -3.20009        6.38577       -5.32152
C         -3.56897        5.12517       -5.78385
C         -2.92821        4.67155       -6.99990
C         -3.44731        3.45366       -7.73590
C         -4.90922        3.48799       -8.13422
C         -1.79402        5.40251       -7.55996
C         -0.83998        4.86855       -8.63479
C         -0.84465        3.49626       -9.29785
C         -1.49202        6.71841       -7.04554
C         -0.55629        7.76188       -7.46525
C         -0.58578        8.87320       -6.65251
S         -1.72792        8.71537       -5.40646
C         -2.20444        7.16140       -5.94035
C          0.25923        7.75937       -8.64503
C          1.56779        7.45998       -8.67746
S          2.43248        7.40266      -10.18533
C          3.76158        6.31067       -9.75683
C          3.64829        5.25072       -8.87899
S          5.14015        4.46114       -8.61023
C          5.92771        5.44170       -9.77088
C          5.06654        6.34270      -10.36216
S          5.47635        7.24496      -11.82181
C          6.67796        8.35051      -11.23745
S          8.34670        8.34468      -11.70689
C          8.66923        9.96392      -11.08046
C          7.51156       10.37599      -10.51018
C          6.45265        9.50068      -10.58587
N          5.31051       10.01200      -10.05172
N          5.54001       11.28409       -9.59110
C          6.86051       11.50288       -9.89484
C          9.94064       10.56339      -11.28808
C         10.37420       11.60163      -10.56185
H        -10.95876       -2.64468       -3.58765
H         -9.06425       -4.27647        0.77473
H        -13.44701       -2.52924       -2.12760
H         -5.23702       -1.91706       -2.33707
H         -8.30485       -0.62803       -8.00576
H         -3.47929        2.04244       -5.04742
H         -6.28070        3.26133       -4.74593
H         -5.72615        5.33260       -3.13620
H         -3.16082        2.53862       -7.21246
H         -2.99421        3.39246       -8.70950
H         -5.59795        3.46272       -7.29552
H         -5.10168        2.61667       -8.76809
H         -5.14855        4.37974       -8.71783
H          0.15202        4.92783       -8.16646
H         -0.86602        5.58324       -9.46338
H         -0.95472        2.67914       -8.57975
H          0.10181        3.34136       -9.82757
H         -1.61951        3.43241      -10.07060
H         -0.01291        9.78638       -6.74651
H         -0.26256        7.99303       -9.57223
H          2.08775        7.22531       -7.75223
H          2.76547        4.89882       -8.36246
H          6.96662        5.25315      -10.00447
H          4.39503        9.58038       -9.98857
H          7.27796       12.47813       -9.68058
H         10.58596       10.16552      -12.06905
H          9.80251       12.04009       -9.75156
H         11.34982       12.03709      -10.75959
