116

C         -6.27835        1.04761        5.73154
C         -5.67631        0.01921        5.08113
C         -5.28882       -1.19128        5.73492
N         -4.96422       -2.17092        6.25799
C         -5.38532        0.06734        3.68319
N         -5.13180        0.10109        2.55078
C         -6.68678        1.06591        7.18014
C         -7.33443        2.27780        7.41652
C         -7.70670        2.76098        8.65852
C         -7.56717        1.89081        9.74835
C         -7.06700        0.59913        9.52108
C         -6.58519        0.17694        8.24731
S         -7.15960       -0.34222       10.97109
C         -7.79024        0.95400       11.85361
C         -7.90709        2.10287       11.12261
Br        -8.30721        0.83553       13.64954
C         -7.62203        2.96974        6.17081
O         -8.49207        3.80333        6.04052
C         -6.71176        2.36312        5.16109
C         -6.30408        3.08421        4.10030
C         -6.78143        4.40157        3.78383
S         -8.06943        4.54844        2.65195
C         -7.98389        6.26534        2.59031
C         -6.90021        6.70470        3.34675
C         -6.38587        5.66386        4.22630
C         -5.45269        6.00437        5.37317
N         -6.16483        5.81237        6.64047
C         -4.97634        7.47269        5.39167
C         -4.91164        8.09522        4.00236
C         -6.31601        8.10309        3.37317
N         -6.20461        8.60136        2.00775
C         -8.91593        7.06917        1.84811
C         -9.59929        6.64033        0.77603
C        -10.57286        7.40738        0.01291
C        -10.42650        8.59727       -0.59200
C        -11.39536        9.15953       -1.51106
C        -10.88312       10.11297       -2.30646
C         -9.48142       10.38782       -2.03916
S         -9.00750        9.60070       -0.52970
C         -8.58963       10.97210       -2.86160
C         -8.79567       11.34048       -4.25174
C         -7.65205       11.34083       -4.95895
C         -6.48704       11.02004       -4.15331
S         -6.88136       11.14225       -2.46362
C         -5.30899       10.59962       -4.63836
C         -4.19323       10.21375       -3.83149
S         -3.02740       11.39498       -3.42182
C         -1.96833       10.26655       -2.66306
C         -2.44899        8.97303       -2.87191
C         -3.83826        8.97494       -3.30655
C         -4.68739        7.72045       -3.29215
N         -5.74461        7.89184       -2.30295
C         -3.91833        6.45754       -2.85545
C         -2.45609        6.48551       -3.28201
C         -1.72889        7.66798       -2.61085
N         -0.37793        7.74439       -3.17351
C         -0.77109       10.67065       -1.97458
C         -0.37810       11.94701       -1.83146
C          0.80266       12.38820       -1.12172
C          1.13679       12.21611        0.16470
C          0.53104       11.53183        1.31449
C         -0.78198       11.50905        1.65438
C         -1.24983       10.93469        2.87175
N         -1.62443       10.46353        3.86437
C         -1.77902       12.20750        0.92079
N         -2.61441       12.82625        0.38578
C          1.65842       11.18519        2.23612
C          2.77199       11.94018        1.85546
C          2.50768       12.65004        0.59433
O          3.27256       13.39830        0.02244
C          3.96948       11.96988        2.56026
C          4.07198       11.16039        3.71346
C          2.98492       10.34198        4.06119
C          1.76925       10.33142        3.32793
S          3.34529        9.40015        5.46615
C          4.87248       10.10112        5.62538
C          5.15603       11.01479        4.64631
Br         6.06279        9.66685        7.00544
H         -8.12771        3.75682        8.76176
H         -6.19740       -0.83175        8.15538
H         -8.27774        3.04317       11.51422
H         -5.56361        2.69981        3.40590
H         -4.57971        5.34293        5.33797
H         -7.16177        5.65647        6.45075
H         -5.82688        4.98591        7.11737
H         -3.99349        7.53093        5.87674
H         -5.64385        8.09985        6.00151
H         -4.19950        7.53028        3.38540
H         -4.52768        9.12018        4.07789
H         -6.98098        8.76029        3.94569
H         -5.67924        7.94634        1.43038
H         -5.69926        9.48324        1.98182
H         -9.04092        8.09597        2.18347
H         -9.47658        5.62030        0.41931
H        -11.48998        6.84982       -0.17140
H        -12.41007        8.79371       -1.58283
H        -11.44519       10.60831       -3.08567
H         -9.77015       11.50061       -4.69190
H         -7.59695       11.51168       -6.02588
H         -5.17423       10.51117       -5.71246
H         -5.11879        7.56657       -4.28809
H         -6.20944        8.79366       -2.41796
H         -6.46352        7.18096       -2.41038
H         -4.41508        5.56747       -3.26197
H         -3.94054        6.33977       -1.76167
H         -2.40336        6.55423       -4.37727
H         -1.97491        5.54123       -2.99765
H         -1.66165        7.50194       -1.52943
H         -0.45016        8.01726       -4.15461
H          0.04334        6.81748       -3.17435
H         -0.17516        9.87797       -1.52837
H         -0.92786       12.76363       -2.29563
H          1.48511       12.95420       -1.76106
H          4.79282       12.59764        2.23022
H          0.96975        9.67012        3.64465
H          6.08798       11.56432        4.58420
