91

C        -14.09054        1.89295       -3.07010
C        -15.06028        1.40092       -2.25720
C        -16.40053        1.22482       -2.69978
N        -17.49398        1.10133       -3.05854
C        -14.80604        0.95671       -0.93049
N        -14.58988        0.60480        0.15724
C        -14.19739        2.26688       -4.51003
C        -12.90046        2.33291       -5.03489
C        -12.59717        2.77022       -6.31671
C        -13.66612        3.23634       -7.11076
C        -14.97522        3.14350       -6.61009
C        -15.26807        2.63867       -5.31506
S        -16.11584        3.75977       -7.75566
C        -14.89028        4.25615       -8.80519
C        -13.63837        3.89503       -8.38711
Br       -15.20936        5.22878      -10.37381
C        -11.90066        2.07402       -3.98835
O        -10.70027        1.97974       -4.13558
C        -12.67564        2.05104       -2.71435
C        -12.11571        2.41813       -1.55319
N        -10.80769        2.77875       -1.30767
C        -10.28208        3.25902       -0.14243
S        -10.87748        2.76787        1.40577
C         -9.75392        3.72539        2.21352
N         -9.78241        3.76869        3.63774
O         -8.72372        3.50278        4.21971
O        -10.84627        4.11140        4.16876
C         -8.88484        4.38386        1.38241
C         -9.20750        4.13495        0.00596
C         -8.46037        4.72543       -1.06921
C         -8.92444        5.04500       -2.29052
C         -8.04432        5.51821       -3.32786
C         -8.35642        5.87554       -4.58802
C         -9.71975        5.86542       -5.23286
C         -7.23576        6.33972       -5.48039
N         -7.53630        7.69076       -5.90515
C         -6.66558        8.42231       -6.66022
C         -6.84311        9.67212       -7.09405
C         -5.84128       10.37728       -7.83749
C         -6.04147       11.34625       -8.74576
C         -4.82437       11.86593       -9.32490
C         -3.70890       11.27014       -8.87733
S         -4.11811       10.15339       -7.58697
O         -3.72836       10.73585       -6.31614
O         -3.69306        8.81800       -7.95948
C         -2.35252       11.49265       -9.27569
C         -1.85738       11.67077      -10.50691
C         -0.44801       12.16829      -10.55480
O          0.37455       12.18766       -9.66359
C         -0.26017       12.70673      -11.90215
C          0.89361       13.32841      -12.35042
C          0.93454       13.74598      -13.67923
C         -0.20895       13.56444      -14.51155
C         -0.13873       13.95750      -15.85572
C          1.03495       14.50631      -16.36374
C          2.14113       14.68940      -15.54655
C          2.09768       14.32128      -14.20737
F          3.26898       15.21359      -16.04430
F          1.08927       14.84888      -17.65777
C         -1.38087       12.97121      -13.99388
C         -1.40614       12.50656      -12.68503
C         -2.39807       11.71910      -11.87841
C         -3.43882       11.02267      -12.40255
C         -4.15824       10.01346      -11.69631
N         -4.78766        9.19277      -11.17214
C         -3.89385       11.19512      -13.74034
N         -4.28944       11.35595      -14.81964
H        -11.56546        2.84304       -6.65005
H        -16.29780        2.64083       -4.97304
H        -12.72854        4.12712       -8.92832
H        -12.73889        2.55654       -0.67487
H        -10.22682        2.80384       -2.15319
H         -8.09058        5.03388        1.73342
H         -7.41193        4.92840       -0.84924
H         -9.97389        4.92970       -2.53694
H         -6.99142        5.55191       -3.04148
H        -10.53192        5.64145       -4.53880
H         -9.74992        5.12776       -6.04219
H         -9.94871        6.84400       -5.67091
H         -7.13815        5.67423       -6.34570
H         -6.27328        6.33702       -4.95338
H         -8.07796        8.24415       -5.24429
H         -5.76570        7.85931       -6.90687
H         -7.78698       10.17811       -6.91608
H         -7.01422       11.67530       -9.08613
H         -4.85570       12.60947      -10.10862
H         -1.66811       11.54170       -8.42124
H          1.73872       13.45199      -11.67769
H         -0.98124       13.82382      -16.52962
H          2.98313       14.47168      -13.59535
H         -2.23132       12.87125      -14.65959
