132

C         -8.71295        9.57083        1.05846
C         -8.71849       10.68773        0.30844
C         -7.95875       10.74753       -0.90154
N         -7.38302       10.74456       -1.90826
C         -9.62421       11.76495        0.56014
N        -10.33063       12.63583        0.78393
C         -7.92511        8.28946        0.81039
C         -8.72111        7.25520        1.30651
C         -8.37342        5.93362        1.43820
C         -7.10724        5.56363        0.98156
C         -6.30888        6.53530        0.36003
C         -6.71085        7.91487        0.25180
S         -4.83976        5.79619       -0.18893
C         -5.23241        4.30700        0.51959
C         -6.48157        4.27905        1.06696
Br        -4.08012        2.83308        0.57994
C        -10.04035        7.82057        1.48887
O        -10.94198        7.53036        0.71122
C         -9.83321        9.17430        1.95564
C        -10.55813        9.66341        2.97879
C        -11.44306        8.93665        3.89684
C        -11.32520        9.26608        5.24196
S        -12.36891        8.39901        6.26881
C        -13.10803        7.63991        4.95302
C        -12.52068        7.93936        3.70760
C        -13.16942        7.27441        2.61007
C        -12.70115        6.01462        1.82322
C        -11.51609        5.23723        2.34758
C        -14.56444        7.15151        2.76520
C        -15.50930        8.07308        2.04473
C        -15.27215        8.17733        0.54426
C        -14.90117        6.39826        3.90020
C        -15.60791        5.16880        4.10643
C        -15.72330        4.88045        5.45582
S        -14.80483        5.96289        6.42231
C        -14.18661        6.73297        5.03993
C        -16.04395        4.23151        3.10792
C        -16.23537        4.46577        1.80215
C        -16.64605        3.56637        0.76180
C        -15.96975        3.65565       -0.44145
S        -16.72493        2.78453       -1.67891
C        -18.01422        2.36074       -0.64839
C        -17.79121        2.66389        0.69520
C        -18.74323        2.11573        1.62674
C        -18.62558        2.28685        3.14234
C        -17.72626        1.26937        3.84604
C        -19.90314        1.37946        1.12971
C        -20.65471        0.50234        2.12202
C        -21.37686       -0.72065        1.57833
C        -20.26462        1.49263       -0.24692
C        -21.49171        1.36514       -1.01952
C        -21.23060        1.25657       -2.37452
S        -19.59942        1.53385       -2.74597
C        -19.22861        1.82668       -1.10704
C        -22.86925        1.33795       -0.59772
C        -23.39796        1.64472        0.60458
C        -24.80026        1.51015        0.87556
S        -25.91932        1.90796       -0.35528
C        -27.29284        1.64195        0.62782
C        -26.93031        1.35737        1.93807
C        -25.47430        1.17786        2.05308
O        -24.78704        1.00743        3.21704
C        -24.23677       -0.28913        3.52839
C        -24.56625       -1.54356        2.69716
O        -27.86297        1.48155        2.93616
C        -28.19987        0.33854        3.73072
C        -27.06544       -0.14322        4.58077
C        -28.51026        1.70844       -0.09693
C        -29.56755        2.50437        0.11956
C        -30.66849        2.34516       -0.81719
C        -31.35313        3.30586       -1.45610
C        -32.30771        2.98113       -2.46839
S        -32.77934        1.37661       -2.96430
C        -33.88621        1.91546       -4.21416
C        -33.84161        3.26784       -4.18650
C        -32.99697        3.83141       -3.25351
N        -33.00703        5.19239       -3.30470
N        -33.86991        5.62194       -4.28035
C        -34.36524        4.45651       -4.80513
C        -34.57742        0.93694       -4.97906
C        -35.45668        1.24404       -5.94077
H         -9.01504        5.19112        1.88834
H         -6.05461        8.61790       -0.25475
H         -6.93474        3.41486        1.53760
H        -10.35457       10.69670        3.28047
H        -10.65606        9.98222        5.70131
H        -12.62028        6.27542        0.76311
H        -13.50516        5.26881        1.79361
H        -10.76230        5.88299        2.78888
H        -11.08608        4.65665        1.52123
H        -11.79923        4.52981        3.12909
H        -15.40797        9.06929        2.49293
H        -16.53999        7.74798        2.22340
H        -14.25006        8.49273        0.31080
H        -15.95595        8.91537        0.11304
H        -15.45021        7.22089        0.04341
H        -16.24318        4.05559        5.92114
H        -16.16034        3.21888        3.45421
H        -16.02590        5.46195        1.43452
H        -15.08612        4.23827       -0.67478
H        -19.61285        2.26698        3.61643
H        -18.30359        3.30587        3.35309
H        -17.51925        1.60414        4.86945
H        -16.77113        1.12205        3.33303
H        -18.19837        0.28706        3.92971
H        -21.30600        1.12280        2.74504
H        -19.91742        0.05700        2.79462
H        -21.98276       -0.55155        0.69657
H        -22.03415       -1.10811        2.34806
H        -20.68760       -1.53178        1.34278
H        -21.92987        1.07338       -3.17965
H        -23.55792        1.03748       -1.38735
H        -22.77496        1.98054        1.42238
H        -24.53359       -0.49953        4.56604
H        -23.16054       -0.16605        3.64639
H        -25.63346       -1.75196        2.57930
H        -24.13785       -2.42670        3.19083
H        -24.16706       -1.48536        1.68445
H        -28.60605       -0.47683        3.12026
H        -28.99041        0.65198        4.42154
H        -26.44345       -0.64041        3.86928
H        -27.29108       -0.91706        5.31417
H        -26.51399        0.67897        5.04739
H        -28.51962        1.10352       -1.00534
H        -29.63078        3.21711        0.93435
H        -30.85410        1.29891       -1.06102
H        -31.13015        4.34981       -1.25370
H        -32.48173        5.85369       -2.74650
H        -35.08092        4.52921       -5.61442
H        -34.38474       -0.11439       -4.77364
H        -35.71197        2.25905       -6.21449
H        -35.95568        0.45040       -6.49008
