101

C         -0.62389       -8.32760       -4.56666
C          0.21449       -9.36766       -4.78622
C          1.11106       -9.84878       -3.79742
N          1.84081      -10.25396       -2.97759
C          0.16691      -10.12052       -6.00124
N          0.13034      -10.73861       -6.98327
C         -0.81990       -7.57456       -3.28606
C         -2.06845       -6.94917       -3.36269
C         -2.55448       -6.02724       -2.45299
C         -1.77209       -5.78134       -1.31291
C         -0.56703       -6.48670       -1.15190
C         -0.05432       -7.37173       -2.14403
S          0.14184       -6.12293        0.38369
C         -1.11025       -5.06360        0.78574
C         -2.02275       -4.89187       -0.21719
Br        -1.26588       -4.24554        2.45951
C         -2.77942       -7.35829       -4.57036
O         -3.98115       -7.33178       -4.71698
C         -1.70890       -7.88199       -5.46806
C         -1.77956       -7.66543       -6.79576
C         -2.97812       -7.21227       -7.46193
C         -3.88980       -8.15722       -7.90441
O         -3.70781       -9.48704       -7.87223
C         -4.38085      -10.26014       -8.85761
S         -5.34339       -7.40568       -8.39165
C         -4.69216       -5.82473       -8.27958
O         -5.36128       -4.71703       -8.65597
C         -6.78467       -4.78501       -8.68114
C         -3.39235       -5.86689       -7.77968
C         -2.63066       -4.65041       -7.66534
C         -1.84423       -4.28719       -6.64160
C         -1.04267       -3.08343       -6.64834
C         -0.49478       -2.48000       -5.57288
C         -0.79056       -2.83319       -4.13872
C          0.42746       -1.29973       -5.75757
N          1.82419       -1.75692       -5.77202
C          2.50430       -1.90530       -4.57539
C          3.42055       -1.07175       -4.07206
C          4.08370       -1.26477       -2.80202
C          3.53663       -1.28546       -1.57570
C          4.31000       -1.48696       -0.37389
C          3.58791       -1.42927        0.75262
C          2.17675       -1.14782        0.54047
S          1.84908       -1.03271       -1.19369
C          1.25063       -0.98659        1.50801
C          1.47963       -1.11851        2.93733
C          0.38266       -0.95352        3.68923
C         -0.80956       -0.67797        2.92078
S         -0.44035       -0.57337        1.21306
C         -2.03356       -0.55027        3.45971
C         -3.25777       -0.35517        2.70872
C         -4.16364        0.62477        2.84543
C         -4.26575        1.80447        3.71466
C         -4.07974        1.86413        5.05485
C         -4.16672        3.07333        5.80188
N         -4.20645        4.06121        6.40929
C         -3.91053        0.69518        5.85077
N         -3.82275       -0.24195        6.52957
C         -4.93457        2.86486        2.90055
C         -5.48810        2.26116        1.76521
C         -5.10505        0.84031        1.69546
O         -5.44947        0.04510        0.84774
C         -6.26549        2.93394        0.82876
C         -6.52332        4.30508        1.05569
C         -5.95239        4.92059        2.17991
C         -5.13419        4.22417        3.10197
S         -6.39592        6.58749        2.27528
C         -7.31190        6.48784        0.86294
C         -7.30918        5.24026        0.29792
Br        -8.23542        7.94878        0.14228
H         -3.49862       -5.51971       -2.62949
H          0.90226       -7.85538       -1.97244
H         -2.87739       -4.22694       -0.16098
H         -0.93629       -7.89179       -7.44251
H         -3.69911      -11.04903       -9.18759
H         -4.66378       -9.69016       -9.74970
H         -5.26349      -10.72495       -8.40991
H         -7.16765       -3.78349       -8.90025
H         -7.18287       -5.08894       -7.70656
H         -7.14065       -5.45211       -9.47382
H         -2.75282       -3.94911       -8.49089
H         -1.75569       -4.93051       -5.77681
H         -0.82841       -2.67349       -7.63642
H         -1.37015       -3.75001       -4.02982
H         -1.36533       -2.02591       -3.67141
H          0.12276       -2.97140       -3.55886
H          0.27136       -0.54018       -4.98136
H          0.22575       -0.80028       -6.71367
H          2.34684       -1.13702       -6.38900
H          2.20741       -2.80208       -4.03467
H          3.71674       -0.19017       -4.63313
H          5.16361       -1.36222       -2.89712
H          5.37639       -1.66605       -0.39399
H          4.02816       -1.55782        1.73061
H          2.44299       -1.35777        3.36451
H          0.37469       -1.04639        4.76729
H         -2.13198       -0.68775        4.53121
H         -3.36092       -1.03223        1.85605
H         -6.66539        2.41409       -0.03792
H         -4.71377        4.77087        3.93730
H         -7.84238        4.98830       -0.61104
