118

C         -3.67572       12.04156       -0.17162
C         -4.23538       12.96284        0.64486
C         -3.66191       14.25226        0.84467
N         -3.19674       15.30403        1.00854
C         -5.47137       12.75852        1.32445
N         -6.46734       12.58334        1.89315
C         -2.44518       12.21547       -0.99599
C         -2.46044       11.27094       -2.02621
C         -1.46330       11.16592       -2.99005
C         -0.32820       12.00022       -2.85560
C         -0.27745       12.90307       -1.78128
C         -1.33635       13.04259       -0.85027
S          1.22685       13.75408       -1.75192
C          1.79027       12.93346       -3.11414
C          0.87594       12.05971       -3.63942
Br         3.50705       13.18093       -3.82181
C         -3.58619       10.33238       -1.84764
O         -3.86280        9.39193       -2.56315
C         -4.24895       10.74037       -0.56816
C         -5.06767        9.92372        0.10997
N         -5.53936        8.66874       -0.20854
C         -6.37353        7.86753        0.52345
C         -6.95820        8.22609        1.72317
S         -8.05500        7.05404        2.31049
C         -7.74786        6.03292        0.97740
C         -6.78826        6.54410        0.12792
N         -6.36363        5.82936       -0.95092
C         -5.10422        5.81815       -1.49893
C         -4.69955        5.11641       -2.56209
C         -3.32413        5.22935       -3.03631
C         -2.33550        4.39838       -2.50073
C         -1.04670        4.48947       -3.00571
C         -0.72762        5.44680       -3.99276
C         -1.69449        6.30416       -4.49318
C         -3.00070        6.18652       -4.01420
C          0.67753        5.35125       -4.30956
C          1.26385        4.33078       -3.53285
C          0.19473        3.66409       -2.63863
C          0.55970        3.76586       -1.13624
C          0.68425        5.18360       -0.57818
C          0.03671        2.18713       -3.10938
C         -0.96481        1.32242       -2.34815
C          2.62134        4.03570       -3.64592
C          3.40347        4.76669       -4.55417
C          2.80138        5.80067       -5.30591
C          1.43845        6.08940       -5.19660
C          4.84754        4.48415       -4.65560
C          5.56166        4.70821       -5.76824
C          6.99600        4.53901       -5.86262
C          7.83738        5.51330       -6.24222
C          9.25378        5.34825       -6.45963
C          9.84999        6.43954       -6.96307
C          8.94369        7.55381       -7.18749
S          7.34683        7.16002       -6.55765
C          9.21837        8.69383       -7.84910
C         10.47760        9.04556       -8.47717
C         10.41247       10.14209       -9.24635
C          9.10277       10.75366       -9.27004
S          8.02070        9.94703       -8.16657
C          8.77341       11.81722      -10.01938
C          7.46235       12.43787      -10.06521
C          7.17346       13.71387      -10.34608
C          7.97667       14.90369      -10.64711
C          9.13109       15.29233      -10.04942
C          9.76504       16.53236      -10.33265
N         10.28954       17.54083      -10.57785
C          9.74750       14.55234       -8.99622
N         10.27706       14.00049       -8.12560
C          7.09914       15.80563      -11.44915
C          5.77726       15.37976      -11.28908
C          5.73732       14.08524      -10.58792
O          4.74051       13.44608      -10.32455
C          4.67713       16.08262      -11.76424
C          4.92300       17.28400      -12.46835
C          6.25276       17.66243      -12.71400
C          7.35979       16.92358      -12.23061
S          6.32661       19.11759      -13.64178
C          4.64708       19.27494      -13.64424
C          4.00281       18.24850      -13.00676
Br         3.75741       20.71538      -14.44510
H         -1.52559       10.41938       -3.77717
H         -1.22055       13.73812       -0.02649
H          1.06114       11.44976       -4.51557
H         -5.41653       10.22853        1.08668
H         -5.26084        8.35472       -1.14500
H         -6.83477        9.13653        2.28988
H         -8.25906        5.08359        0.91146
H         -6.94058        5.05883       -1.28260
H         -4.38338        6.44073       -0.97147
H         -5.36216        4.46851       -3.12447
H         -2.57910        3.69825       -1.70880
H         -1.45594        7.05165       -5.24147
H         -3.76912        6.85648       -4.39577
H          1.50759        3.24273       -0.95517
H         -0.19627        3.25437       -0.52917
H          1.39053        5.79220       -1.14914
H          1.04092        5.14310        0.45661
H         -0.28462        5.69279       -0.56665
H          1.00889        1.68082       -3.04709
H         -0.24510        2.16598       -4.17173
H         -0.70150        1.22683       -1.29152
H         -0.97799        0.31336       -2.77342
H         -1.98440        1.70425       -2.42419
H          3.06174        3.24503       -3.04614
H          3.39504        6.40946       -5.98488
H          1.00184        6.88153       -5.79490
H          5.33128        4.11404       -3.75552
H          5.08647        5.08910       -6.67087
H          7.37005        3.53742       -5.66866
H          9.76721        4.41653       -6.26761
H         10.90037        6.47380       -7.21352
H         11.38080        8.46493       -8.35769
H         11.25197       10.53644       -9.80190
H          9.53633       12.24610      -10.66492
H          6.62522       11.75306       -9.90326
H          3.66760       15.72466      -11.58129
H          8.36318       17.26352      -12.46149
H          2.92591       18.17912      -12.91095
