97

C        -12.72351       -8.83543       -8.58888
C        -13.16055       -9.67916       -7.61925
C        -13.08304      -11.08645       -7.76236
N        -13.03038      -12.23880       -7.93015
C        -13.82082       -9.26310       -6.42539
N        -14.38491       -8.95565       -5.45936
C        -12.12825       -9.25428       -9.90313
C        -12.07296       -8.14270      -10.74240
C        -11.71705       -8.19617      -12.08753
C        -11.40979       -9.45904      -12.63930
C        -11.37689      -10.56977      -11.78513
C        -11.68823      -10.47693      -10.40520
S        -10.94441      -12.00655      -12.64368
C        -10.89567      -11.18321      -14.11671
C        -11.12363       -9.83823      -13.99555
Br       -10.55933      -12.03028      -15.75315
C        -12.47759       -6.92665      -10.02962
O        -12.45286       -5.81052      -10.50700
C        -12.90630       -7.36561       -8.65593
C        -13.37605       -6.49668       -7.74914
C        -13.61053       -5.08397       -7.96538
C        -13.03306       -4.09378       -7.27398
C        -13.40574       -2.70556       -7.38433
C        -12.91579       -1.94844       -6.39211
C        -12.10569       -2.69379       -5.44233
S        -11.80321       -4.31799       -6.06211
C        -11.75175       -2.29864       -4.20590
C        -12.15343       -1.07021       -3.54531
C        -12.03078       -1.12235       -2.20950
C        -11.49962       -2.38333       -1.73530
S        -10.88524       -3.32580       -3.06973
C        -11.54317       -2.79787       -0.45969
C        -11.10862       -4.08384       -0.05937
S        -12.10344       -5.48350       -0.07820
C        -10.85064       -6.52748        0.53116
C         -9.73478       -5.75734        0.72626
C         -9.86713       -4.40637        0.38785
S         -8.32813       -3.49848        0.64807
C         -7.72165       -5.09713        1.17960
N         -8.51451       -6.17525        1.19057
C        -11.13236       -7.91093        0.71407
C        -10.47678       -8.66139        1.61248
C        -10.74318      -10.06839        1.83976
C        -10.64974      -11.07272        0.95299
C        -10.90018      -12.45467        1.28518
C        -10.68883      -13.30075        0.26751
C        -10.22704      -12.65993       -0.95620
S        -10.17008      -10.91281       -0.72162
C         -9.85626      -13.28904       -2.09117
C         -9.87370      -14.72434       -2.30683
C         -9.38739      -15.10963       -3.49405
C         -8.95269      -14.01560       -4.33322
S         -9.23611      -12.48205       -3.53852
C         -8.45225      -14.19176       -5.56928
C         -8.06099      -13.15038       -6.49863
C         -7.92574      -13.20512       -7.83334
C         -8.05669      -14.23003       -8.88617
C         -8.97137      -15.22923       -8.95828
C         -9.03164      -16.14358      -10.04998
N         -9.06997      -16.90997      -10.91916
C        -10.00007      -15.41618       -7.98608
N        -10.83996      -15.61165       -7.21260
C         -7.16530      -13.78360      -10.01326
C         -6.82435      -12.44699       -9.78578
C         -7.33420      -11.99288       -8.48889
O         -7.25747      -10.86248       -8.05447
C         -6.03787      -11.67470      -10.63253
C         -5.50810      -12.29774      -11.78023
C         -5.81596      -13.64767      -12.01497
C         -6.65005      -14.40857      -11.14622
S         -5.04071      -14.20756      -13.45796
C         -4.32393      -12.70449      -13.73970
C         -4.63785      -11.76760      -12.79329
Br        -3.20412      -12.35323      -15.20037
H        -11.72814       -7.29621      -12.69662
H        -11.60984      -11.37567       -9.80800
H        -11.11837       -9.14704      -14.82984
H        -13.66133       -6.80062       -6.74713
H        -14.37984       -4.84882       -8.69823
H        -14.06545       -2.34134       -8.15926
H        -13.14098       -0.89767       -6.28552
H        -12.58286       -0.22784       -4.06841
H        -12.34523       -0.33108       -1.54320
H        -11.98332       -2.16391        0.30393
H         -6.68809       -5.15568        1.49508
H        -11.91394       -8.35874        0.10394
H         -9.72605       -8.22250        2.26738
H        -10.99585      -10.29858        2.87414
H        -11.21523      -12.76788        2.27164
H        -10.82527      -14.36790        0.36404
H        -10.25413      -15.42742       -1.58037
H         -9.34880      -16.14091       -3.81702
H         -8.33113      -15.21506       -5.91450
H         -7.80028      -12.20531       -6.01319
H         -5.81309      -10.63936      -10.39056
H         -6.83066      -15.45176      -11.38293
H         -4.26514      -10.74960      -12.80120
