72

C         -7.31643       -0.47331        3.38604
C         -6.31775       -1.01506        4.12635
C         -6.53693       -1.66267        5.38133
N         -6.70056       -2.18605        6.40216
C         -4.95362       -1.00872        3.71211
N         -3.83590       -0.99014        3.40035
C         -8.78321       -0.51930        3.71217
C         -9.49695       -0.07763        2.59704
C        -10.88403        0.03429        2.54785
C        -11.62081       -0.35778        3.68649
C        -10.91994       -0.82683        4.80696
C         -9.50114       -0.89762        4.84559
S        -12.00931       -1.28914        6.06917
C        -13.35948       -0.86283        5.15006
C        -13.04030       -0.36788        3.91412
Br       -15.12062       -1.05193        5.76102
C         -8.59109        0.24986        1.48662
O         -8.94199        0.46040        0.34596
C         -7.19991        0.18213        2.04864
C         -6.14277        0.75138        1.44072
C         -6.21074        1.47769        0.21310
O         -6.38058        2.84699        0.19139
C         -6.35028        3.29977       -1.10342
C         -6.14351        2.21264       -1.92789
C         -6.07934        1.05332       -1.10646
C         -5.90664       -0.30493       -1.57037
O         -5.47918       -1.22388       -0.87987
C         -6.52060        4.68738       -1.45145
C         -6.81579        5.71923       -0.58659
C         -6.96601        6.98656       -1.24365
C         -6.74472        6.88179       -2.61357
S         -6.38936        5.25958       -3.05938
C         -6.82210        8.00706       -3.44680
C         -7.13550        9.27635       -2.92773
C         -7.38957        9.36608       -1.56341
C         -7.29433        8.24900       -0.73092
S         -7.82905       10.95627       -1.11008
C         -7.53784       11.58889       -2.67111
C         -7.24045       10.56970       -3.55749
C         -7.66939       12.99618       -2.96581
O         -8.09331       13.42805       -4.20477
C         -8.20438       14.79561       -4.20002
C         -7.81777       15.24672       -2.95502
C         -7.41766       14.11724       -2.17927
C         -6.84319       14.17638       -0.85238
O         -6.67715       15.23197       -0.24372
C         -8.64948       15.57987       -5.33426
S         -9.48995       17.06385       -5.03761
C         -9.64233       17.39567       -6.68529
N        -10.31682       18.58234       -7.14170
O        -10.34113       18.76179       -8.36742
O        -10.82657       19.33078       -6.29858
C         -9.06605       16.43016       -7.47531
C         -8.51559       15.34902       -6.70174
C         -7.88761       14.19136       -7.28081
C         -7.73063       13.95187       -8.59146
H        -11.37815        0.40665        1.65451
H         -9.03730       -1.25354        5.75824
H        -13.77404       -0.03842        3.18807
H         -5.15830        0.76197        1.88977
H         -6.04718        2.24649       -3.00458
H         -6.17964       -0.46926       -2.62842
H         -6.94121        5.57444        0.48031
H         -6.63376        7.89741       -4.51311
H         -7.48133        8.35530        0.33574
H         -7.06871       10.73872       -4.61338
H         -7.79198       16.27458       -2.61961
H         -6.51771       13.23228       -0.38929
H         -9.05607       16.49203       -8.55677
H         -7.51004       13.42712       -6.60414
H         -8.06394       14.63437       -9.36583
H         -7.25458       13.03732       -8.93130
