98

C          0.38359        4.26148        2.95958
C          0.43782        3.99799        1.62999
C          1.56185        3.39328        1.00707
N          2.47546        2.89783        0.48457
C         -0.63461        4.26899        0.73073
N         -1.49502        4.49256       -0.01436
C          1.44735        3.94038        3.97240
C          0.92430        4.16808        5.24528
C          1.63435        4.01717        6.43197
C          2.97440        3.59166        6.34562
C          3.51371        3.33214        5.07721
C          2.76821        3.50612        3.87798
S          5.15405        2.79704        5.20547
C          5.14116        2.94593        6.88738
C          3.94047        3.37337        7.38539
Br         6.62448        2.56635        7.96673
C         -0.46868        4.60945        5.17365
O         -1.19749        4.70986        6.13799
C         -0.76361        4.83656        3.71880
C         -1.82532        5.54283        3.29163
C         -2.84510        6.18812        4.10067
C         -3.87555        6.85566        3.55669
C         -4.84789        7.56659        4.31828
O         -5.89164        8.22813        3.69146
C         -6.68671        8.87899        4.61533
C         -6.14380        8.59807        5.86156
C         -5.00949        7.79434        5.67448
O         -4.21403        7.33152        6.65553
O         -6.59537        8.99857        7.06691
C         -7.81116        9.67884        4.25226
C         -8.50353        9.45405        3.12056
C         -9.65835       10.24702        2.74150
C        -10.37080       10.08664        1.60860
C        -11.42060       11.01496        1.31607
O        -11.97414       11.79177        2.32225
C        -12.83483       12.67254        1.77609
C        -12.88337       12.49229        0.42142
N        -13.57850       13.38347       -0.43529
O        -14.79114       13.51480       -0.23282
O        -12.90944       13.97995       -1.28788
C        -12.06831       11.36419        0.11603
N        -11.88841       10.77524       -1.10267
C        -12.76861       10.74819       -2.17736
C        -12.61560       10.16890       -3.37632
C        -13.52880       10.28439       -4.48965
C        -13.15756        9.57590       -5.56821
C        -11.96432        8.77443       -5.34691
S        -11.24627        9.18480       -3.77922
C        -11.48949        7.78493       -6.12749
C        -12.01800        7.31659       -7.39603
C        -11.54906        6.10972       -7.75805
C        -10.63524        5.53649       -6.78962
S        -10.16238        6.74020       -5.62369
C        -10.26869        4.24362       -6.74235
C         -9.54857        3.61305       -5.64260
C         -9.13687        2.34264       -5.52398
C         -9.11955        1.16615       -6.40051
C         -8.76522        1.13340       -7.70720
C         -8.63220       -0.07741       -8.44059
N         -8.53093       -1.06908       -9.03786
C         -8.38729        2.30159       -8.42540
N         -8.07524        3.24057       -9.04127
C         -9.23997       -0.02682       -5.50956
C         -9.00487        0.38239       -4.19389
C         -8.85072        1.84644       -4.13099
O         -8.61593        2.49414       -3.13288
C         -8.98790       -0.48326       -3.10498
C         -9.22533       -1.85594       -3.35100
C         -9.49493       -2.26700       -4.66580
C         -9.52425       -1.36439       -5.75841
S         -9.76993       -3.97146       -4.74305
C         -9.52698       -4.15031       -3.08325
C         -9.25306       -2.97111       -2.44313
Br        -9.62840       -5.80324       -2.20768
H          1.16581        4.23477        7.38823
H          3.26523        3.30120        2.93742
H          3.74214        3.52968        8.43927
H         -1.96338        5.73828        2.23379
H         -2.73768        6.14987        5.18067
H         -3.99924        6.89639        2.47824
H         -4.58112        7.62205        7.51087
H         -7.42356        9.49830        6.98029
H         -8.09026       10.48732        4.92064
H         -8.20960        8.65722        2.43993
H         -9.92894       11.04420        3.43554
H        -10.13102        9.30800        0.89212
H        -13.28389       13.38008        2.45830
H        -11.00621       10.30383       -1.31782
H        -13.70853       11.26023       -1.99356
H        -14.40419       10.91983       -4.45680
H        -13.71308        9.57770       -6.49638
H        -12.74069        7.87253       -7.97774
H        -11.86210        5.58326       -8.64926
H        -10.64273        3.58969       -7.52392
H         -9.44731        4.23685       -4.74955
H         -8.80415       -0.10956       -2.10097
H         -9.76397       -1.74649       -6.74458
H         -9.07449       -2.89130       -1.37743
