89

C        -10.80244       -0.06826       -6.11330
C        -12.15598       -0.01884       -6.21620
C        -12.84156        0.11296       -7.45828
N        -13.41110        0.21632       -8.46415
C        -13.03409       -0.13588       -5.09789
N        -13.75882       -0.22434       -4.19828
C         -9.83085       -0.05337       -7.25630
C         -8.55442       -0.32967       -6.76350
C         -7.40753       -0.39364       -7.55207
C         -7.54565       -0.17807       -8.94076
C         -8.82187        0.10053       -9.44941
C         -9.97337        0.17608       -8.62273
S         -8.77356        0.32747      -11.16269
C         -7.10793        0.06307      -11.21507
C         -6.55889       -0.18872       -9.98625
Br        -6.11166        0.11042      -12.80102
C         -8.57531       -0.50280       -5.30525
O         -7.59381       -0.71232       -4.62409
C         -9.99732       -0.27704       -4.87669
C        -10.34656       -0.19899       -3.58250
C         -9.56277       -0.54424       -2.40918
C         -9.36403        0.28030       -1.34719
O         -8.78262       -0.17794       -0.15378
C         -8.52585       -1.50220       -0.09614
C         -8.72767       -2.35377       -1.19873
C         -8.40783       -3.66007       -0.93238
S         -7.89072       -3.84127        0.70127
C         -8.08280       -2.16027        1.02181
O         -9.21604       -1.90384       -2.37658
C         -9.68181        1.70111       -1.33209
C         -9.87179        2.42225       -0.21498
C        -10.06982        3.83682       -0.22361
S        -11.21117        4.51122        0.87126
C        -10.81444        6.14060        0.47613
C         -9.75738        6.15719       -0.42871
C         -9.41748        4.84017       -0.92856
C         -8.34289        4.63784       -1.97268
C         -7.71982        5.94298       -2.48364
C         -7.56887        6.96799       -1.35472
C         -6.83583        8.20199       -1.82497
O         -6.59866        9.16262       -1.09734
C         -8.96368        7.36214       -0.86925
C        -11.48459        7.18574        1.19805
C        -11.88758        8.36687        0.69941
C        -12.33881        9.48004        1.51600
C        -12.15715       10.67036        0.91469
C        -11.55509       10.53787       -0.40254
S        -11.83042        8.88813       -0.96336
C        -10.75828       11.42611       -1.02818
C        -10.39311       12.75086       -0.56630
C         -9.36576       13.29869       -1.23695
C         -8.82646       12.45092       -2.28580
S         -9.84296       11.04060       -2.47839
C         -7.67941       12.71404       -2.94165
C         -7.04957       11.88450       -3.91383
S         -7.82441       10.90346       -5.12767
C         -6.34311       10.22021       -5.70867
C         -5.33681       10.84053       -5.06329
C         -5.71434       11.75854       -4.10718
O         -4.70545       12.41233       -3.45683
C         -3.61829       11.82167       -4.08576
N         -2.32706       12.28524       -3.67098
O         -1.35027       11.68454       -4.14445
O         -2.27705       13.26017       -2.91326
C         -3.93775       10.85507       -5.04539
H         -6.43918       -0.60141       -7.10417
H        -10.91865        0.41231       -9.09542
H         -5.50478       -0.37921       -9.82404
H        -11.34968        0.08931       -3.28401
H         -8.46239       -4.51485       -1.59089
H         -7.87362       -1.75612        2.00217
H         -9.74405        2.18021       -2.30380
H         -9.86436        1.92986        0.75605
H         -8.76375        4.10800       -2.83482
H         -7.55075        4.00877       -1.55013
H         -8.35697        6.36289       -3.27568
H         -6.75473        5.72992       -2.95801
H         -6.97613        6.52729       -0.54325
H         -6.49324        8.20251       -2.87255
H         -9.47944        7.83725       -1.70889
H         -8.88759        8.09166       -0.05506
H        -11.61229        7.01400        2.26540
H        -12.70686        9.35879        2.52482
H        -12.36382       11.62247        1.38018
H        -10.88657       13.23814        0.26214
H         -8.94902       14.26935       -0.99997
H         -7.12638       13.60770       -2.65581
H         -6.33390        9.46584       -6.48211
H         -3.23704       10.28270       -5.63805
