116

C          1.47412        2.45385       -2.29777
C          2.57365        2.46318       -1.50679
C          3.77635        1.78854       -1.85793
N          4.75588        1.23556       -2.14476
C          2.63377        3.21450       -0.29530
N          2.67986        3.82372        0.69091
C          1.34654        1.83786       -3.65197
C          0.26783        2.44118       -4.30551
C         -0.16768        2.09544       -5.57807
C          0.51326        1.05093       -6.23929
C          1.59463        0.43260       -5.59088
C          2.02859        0.81045       -4.29300
S          2.27366       -0.81553       -6.57602
C          1.15032       -0.54629       -7.80642
C          0.26528        0.45890       -7.52469
Br         1.11651       -1.53156       -9.39912
C         -0.39236        3.41704       -3.42851
O         -1.23592        4.21425       -3.77676
C          0.22526        3.20971       -2.07688
C         -0.41152        3.47590       -0.92610
C         -1.75054        4.06073       -0.82974
C         -1.89999        5.44843       -0.77740
C         -3.18104        5.95918       -0.63557
C         -4.30864        5.11013       -0.54401
C         -4.16505        3.73774       -0.62247
C         -2.87685        3.21422       -0.76471
C         -5.49070        5.91306       -0.32599
C         -5.11334        7.26835       -0.27500
C         -3.61149        7.42003       -0.50867
C         -2.91845        8.11910        0.69502
C         -3.02473        7.38772        2.03568
C         -3.34912        8.22271       -1.81450
C         -3.92390        7.60986       -3.09433
C         -6.04048        8.26701       -0.03873
C         -7.37130        7.90779        0.19330
C         -7.75446        6.55281        0.10432
C         -6.81382        5.54798       -0.15448
C         -8.38260        8.92704        0.49644
C         -8.10073       10.07161        1.14301
C         -9.06733       11.07250        1.45022
C         -8.84027       12.27664        2.08690
C        -10.02490       13.04783        2.29461
Cl        -9.90387       14.51716        3.16705
C        -11.15662       12.44159        1.77606
S        -10.72354       10.93007        1.06215
C        -12.55274       12.85207        1.75831
C        -13.13983       14.09558        1.60293
Cl       -12.38505       15.61859        1.38806
C        -14.56766       14.03234        1.56748
C        -15.07208       12.75072        1.66780
S        -13.78805       11.65771        1.95332
C        -16.47036       12.27587        1.61505
C        -16.87997       11.06880        0.99478
C        -18.25409       10.65210        0.96510
N        -18.59354        9.52923        0.28945
C        -17.63342        8.77470       -0.29828
C        -16.32327        9.13720       -0.22614
N        -15.95364       10.28808        0.38991
C        -15.27388        8.34464       -0.77735
N        -14.45190        7.66665       -1.24047
C        -18.08748        7.58251       -0.95545
N        -18.46980        6.62051       -1.46853
C        -19.28240       11.35981        1.61973
C        -18.92966       12.62672        2.16754
C        -17.49901       13.09218        2.16958
N        -17.35943       14.30443        2.73573
S        -18.86178       14.82820        3.17817
N        -19.76906       13.52776        2.70799
C        -20.70695       10.95048        1.67457
C        -21.25460        9.72148        1.68985
C        -20.73139        8.34703        1.66572
C        -19.74585        7.79943        2.41747
C        -19.38331        6.42127        2.32374
N        -19.04707        5.32124        2.21953
C        -18.95927        8.54739        3.32859
N        -18.24000        9.14542        4.02797
C        -21.65633        7.57320        0.79866
C        -22.85807        8.27396        0.70414
C        -22.71071        9.61321        1.31291
O        -23.57042       10.46345        1.40225
C        -23.97469        7.78049        0.04081
C        -23.85707        6.52275       -0.60247
C        -22.61505        5.87061       -0.58869
C        -21.49563        6.38740        0.09616
S        -22.65842        4.39954       -1.48886
C        -24.29959        4.58692       -1.82424
C        -24.83114        5.74391       -1.31755
Br       -25.28762        3.33040       -2.79917
H         -1.02559        2.59180       -6.02401
H          2.85044        0.26915       -3.83742
H         -0.53142        0.76828       -8.19091
H         -0.00626        3.19825        0.04242
H         -1.04192        6.11037       -0.82990
H         -5.02395        3.07886       -0.55923
H         -2.75570        2.13484       -0.81428
H         -3.33280        9.12726        0.82737
H         -1.85150        8.25475        0.47487
H         -4.06517        7.22884        2.33357
H         -2.54145        7.97741        2.82154
H         -2.52183        6.41621        2.00671
H         -2.26881        8.34801       -1.95888
H         -3.76484        9.23459       -1.71329
H         -3.48802        6.62785       -3.30148
H         -3.69940        8.25412       -3.95052
H         -5.01171        7.50169       -3.04329
H         -5.72204        9.30409       -0.03238
H         -8.79403        6.26640        0.25426
H         -7.12262        4.50942       -0.20420
H         -9.38919        8.67847        0.17334
H         -7.08459       10.27323        1.47503
H         -7.85654       12.58825        2.42036
H        -15.18997       14.91055        1.44342
H        -21.39512       11.79959        1.61427
H        -24.90019        8.34807        0.01335
H        -20.55672        5.84748        0.04292
H        -25.86741        6.03287       -1.43929
