75

C         -1.13627        0.85832       -0.11754
C         -0.85997       -0.41432        0.25411
C         -0.02975       -1.28417       -0.50865
N          0.64341       -1.99948       -1.13072
C         -1.34143       -0.97050        1.47523
N         -1.74497       -1.41824        2.46610
C         -0.58183        1.58490       -1.30647
C         -0.83819        2.94683       -1.14070
C         -0.53736        3.92650       -2.07888
C          0.12379        3.52103       -3.25521
C          0.44236        2.16357       -3.41518
C          0.07572        1.17270       -2.46226
S          1.31718        1.90693       -4.88481
C          1.24574        3.54407       -5.29115
C          0.55689        4.29971       -4.38184
Br         2.04061        4.25960       -6.82897
C         -1.50212        3.20239        0.13981
O         -1.62234        4.29048        0.66030
C         -1.92857        1.85905        0.64629
C         -2.98496        1.70542        1.46546
C         -3.72095        2.81402        1.98795
C         -4.88465        3.44221        1.53363
C         -5.59319        3.03989        0.34529
O         -5.11343        2.40610       -0.58507
O         -6.90148        3.35802        0.32459
C         -5.12893        4.49909        2.47014
N         -4.20389        4.47574        3.42891
O         -3.35427        3.44291        3.14609
C         -6.20841        5.56000        2.43845
C         -6.49674        6.60337        3.32492
C         -5.80296        6.92786        4.56194
O         -5.23696        6.10983        5.26899
O         -5.82215        8.23067        4.95007
C         -7.63186        7.24910        2.73049
N         -7.97146        6.67650        1.57653
O         -7.08932        5.64722        1.39770
C         -8.44979        8.36290        3.30843
C         -9.27534        9.29948        2.69842
C         -9.50750        9.48775        1.28655
O        -10.51858        9.96801        0.79876
O         -8.47215        9.15706        0.48938
C         -9.82573       10.05041        3.79504
N         -9.36846        9.56861        4.95602
O         -8.49587        8.56800        4.65275
C        -10.77568       11.12700        3.72738
C        -11.30105       11.82726        4.75110
C        -11.10808       11.81905        6.21054
C         -9.95057       11.96825        6.88557
C         -9.88173       12.05687        8.31161
N         -9.84016       12.13191        9.46703
C         -8.71148       12.18810        6.20301
N         -7.71881       12.40535        5.64154
C        -12.47224       11.93218        6.79937
C        -13.33931       12.39061        5.79886
C        -12.63448       12.46752        4.50433
O        -13.08515       12.87426        3.45460
C        -14.69589       12.60960        5.99646
C        -15.22566       12.32354        7.27651
C        -14.36258       11.84366        8.27576
C        -12.97765       11.64025        8.05866
S        -15.21822       11.53703        9.74475
C        -16.68677       12.00770        9.06170
C        -16.57690       12.41192        7.75818
Br       -18.30843       11.96833        9.99800
H         -0.80500        4.96410       -1.90170
H          0.32539        0.13967       -2.67309
H          0.39057        5.36589       -4.48184
H         -3.37153        0.72764        1.72829
H         -7.23023        3.04093       -0.54111
H         -6.31452        8.87456        4.41338
H         -8.81294        9.27350       -0.42195
H        -11.20984       11.31027        2.74329
H        -15.32871       12.94475        5.17935
H        -12.36940       11.23625        8.86083
H        -17.41429       12.74540        7.15741
