95

C        -10.42672        3.26328       -8.14720
C        -10.19268        2.00629       -8.60266
C        -10.02545        1.70472       -9.97525
N         -9.88692        1.43939      -11.10524
C        -10.06174        0.87267       -7.74612
N         -9.96185       -0.06522       -7.06621
C        -10.49320        4.51842       -8.97214
C        -10.52829        5.61318       -8.10558
C        -10.61062        6.94064       -8.51464
C        -10.62856        7.20366       -9.89939
C        -10.57662        6.11919      -10.78753
C        -10.52351        4.76808      -10.34337
S        -10.58217        6.66965      -12.42854
C        -10.65949        8.28921      -11.95614
C        -10.69071        8.45714      -10.59841
Br       -10.69707        9.71721      -13.16863
C        -10.47589        5.18222       -6.70459
O        -10.34763        5.93198       -5.75946
C        -10.57912        3.68659       -6.72757
C        -10.93767        2.96593       -5.65186
C        -11.20259        3.43928       -4.30837
C        -11.97593        2.72526       -3.47524
C        -12.25008        3.15709       -2.15339
O        -12.22191        4.47191       -1.74712
C        -12.54945        4.56179       -0.40923
C        -12.77548        3.27105        0.03734
C        -12.59656        2.40463       -1.04771
O        -12.70546        1.06457       -1.02743
O        -13.08295        2.89533        1.29371
C        -12.60880        5.79229        0.29299
C        -11.91966        6.85066       -0.15192
C        -11.94639        8.12162        0.52683
C        -11.71034        9.26941       -0.11903
N        -11.73581       10.53307        0.42222
C        -11.56300       11.73621       -0.20654
S        -11.38489       11.87867       -1.92408
C        -11.31023       13.55479       -1.83977
N        -11.18565       14.30704       -3.03917
O        -12.05671       15.16157       -3.24151
O        -10.19849       14.08108       -3.74886
C        -11.40243       14.05717       -0.57157
C        -11.49860       13.00204        0.38607
C        -11.53617       13.20546        1.80499
C        -11.51985       14.37713        2.46448
C        -11.62148       14.53275        3.90932
C        -12.35631       13.80621        4.76729
C        -12.46957       14.06139        6.18439
C        -13.36448       13.27293        6.80315
C        -14.04355       12.34942        5.91063
S        -13.34698       12.44941        4.31499
C        -15.11177       11.57794        6.17486
C        -15.81994       11.47606        7.42997
C        -16.99074       10.83043        7.33554
C        -17.29591       10.38395        5.99437
S        -15.93582       10.62159        4.93806
C        -18.47274        9.87720        5.60226
C        -18.82642        9.55528        4.23350
C        -19.26072        8.36052        3.78734
C        -19.38390        7.13598        4.65449
C        -19.69244        8.19252        2.34705
N        -18.82633        7.24188        1.68395
C        -18.93482        6.84752        0.38033
C        -18.13033        5.99322       -0.25407
H        -10.65446        7.74411       -7.78392
H        -10.50369        3.98655      -11.09375
H        -10.74338        9.42248      -10.10840
H        -11.11645        1.90016       -5.74440
H        -10.75311        4.37408       -3.97568
H        -12.42608        1.78704       -3.78637
H        -12.91510        0.79605       -0.11335
H        -13.10450        3.66949        1.88213
H        -13.23652        5.86642        1.17396
H        -11.31518        6.77799       -1.05710
H        -12.18148        8.12385        1.58729
H        -11.50038        9.23755       -1.18615
H        -11.96964       10.52856        1.41214
H        -11.37618       15.11486       -0.34622
H        -11.59243       12.29837        2.39457
H        -11.40383       15.31404        1.92601
H        -11.09096       15.40515        4.29007
H        -11.90059       14.83445        6.68251
H        -13.59308       13.34987        7.85629
H        -15.45093       11.91089        8.34918
H        -17.67071       10.69100        8.16424
H        -19.27127        9.75206        6.32849
H        -18.73817       10.38831        3.53344
H        -19.01277        7.29539        5.67115
H        -18.80228        6.30741        4.23684
H        -20.43042        6.82589        4.72377
H        -19.66583        9.14843        1.80959
H        -20.72979        7.83807        2.32199
H        -17.98430        6.95982        2.17543
H        -19.77288        7.29485       -0.15277
H        -17.29332        5.51890        0.24450
H        -18.30413        5.74148       -1.29514
