159

C         -1.44004       -0.91640        0.17385
C         -1.53985       -1.99934        0.98366
C         -0.77378       -3.17760        0.77770
N         -0.14861       -4.14107        0.60884
C         -2.36504       -2.01992        2.15398
N         -3.03018       -2.03993        3.09731
C         -0.49065       -0.73753       -0.97299
C         -0.40461        0.63039       -1.24316
C          0.37292        1.18484       -2.25089
C          1.12412        0.30866       -3.05826
C          1.05252       -1.07053       -2.80515
C          0.24359       -1.61761       -1.76748
S          2.05907       -1.94312       -3.91276
C          2.54885       -0.52639       -4.69261
C          1.99125        0.60440       -4.16285
Br         3.73571       -0.49742       -6.14204
C         -1.27830        1.40566       -0.35321
O         -1.25220        2.61125       -0.23345
C         -2.11338        0.39314        0.36719
C         -3.32332        0.65459        0.89082
C         -4.03562        1.93952        0.90846
C         -3.89946        2.82025        1.99173
C         -4.65215        3.98857        1.98797
C         -5.59754        4.23193        0.96947
C         -5.73776        3.37096       -0.10034
C         -4.92751        2.23736       -0.14390
C         -6.28377        5.46881        1.23212
C         -5.72831        6.07307        2.37748
C         -4.61414        5.18554        2.95022
C         -4.92219        4.77663        4.41746
C         -6.20296        3.96155        4.61493
C         -3.24735        5.93163        2.86499
C         -2.78694        6.30867        1.45149
C         -6.18867        7.30025        2.82403
C         -7.23855        7.90300        2.12054
C         -7.81711        7.26485        1.00570
C         -7.33146        6.05023        0.54562
C         -7.76031        9.17962        2.58872
C         -8.28799       10.08178        1.75115
C         -8.80837       11.35972        2.20887
C         -9.86818       11.93321        1.49861
C        -10.30713       13.18755        1.87116
C         -9.71207       13.83768        2.97207
C         -8.68196       13.26836        3.69660
C         -8.21898       12.02802        3.29577
C        -10.32434       15.11845        3.15264
C        -11.31164       15.29948        2.16060
C        -11.43128       14.05093        1.25974
C        -11.11964       14.41724       -0.22203
C        -11.21621       13.29650       -1.26014
C        -12.78309       13.31147        1.47406
C        -14.06876       14.08475        1.19394
C        -11.99593       16.49619        2.09590
C        -11.69970       17.47724        3.04951
C        -10.72946       17.28224        4.04389
C        -10.02892       16.08922        4.09775
C        -12.41081       18.73599        3.01307
C        -11.94779       19.76270        2.28990
C        -12.65285       21.04015        2.24563
C        -14.04739       21.09200        2.40096
C        -14.67507       22.31706        2.34194
C        -13.92862       23.48539        2.11371
C        -12.55512       23.45130        1.95102
C        -11.91636       22.21643        2.00943
C        -14.82392       24.60653        2.06611
C        -16.14975       24.16559        2.26557
C        -16.16351       22.64440        2.47365
C        -17.00406       21.91592        1.38431
C        -16.53733       22.10405       -0.06051
C        -16.71000       22.26948        3.88291
C        -15.92499       22.81899        5.07591
C        -17.20220       25.06999        2.25125
C        -16.91392       26.42519        2.01707
C        -15.57783       26.84253        1.83579
C        -14.52743       25.93491        1.85378
C        -18.00636       27.40504        2.00895
C        -17.97897       28.52193        1.26456
C        -19.04093       29.49131        1.26584
C        -20.30385       29.29251        0.87194
C        -21.03065       28.14263        0.31715
C        -20.59753       27.27869       -0.63482
C        -21.41815       26.24628       -1.16769
N        -22.08758       25.40252       -1.59253
C        -19.32492       27.41403       -1.27565
N        -18.32677       27.52879       -1.84542
C        -22.44057       28.28980        0.78579
C        -22.59937       29.58824        1.28471
C        -21.31511       30.30155        1.30373
O        -21.13062       31.44401        1.66751
C        -23.80206       30.10443        1.74351
C        -24.93205       29.26154        1.69224
C        -24.77500       27.94339        1.23444
C        -23.52976       27.42803        0.79586
S        -26.27623       27.08930        1.27651
C        -27.10424       28.44523        1.84441
C        -26.29680       29.53154        2.04647
Br       -28.94889       28.45994        2.16576
H          0.38328        2.25892       -2.41405
H          0.22071       -2.69525       -1.64276
H          2.18106        1.60642       -4.53002
H         -3.94344       -0.13925        1.29710
H         -3.22445        2.60003        2.81195
H         -6.44467        3.58169       -0.89533
H         -5.01070        1.58183       -1.00641
H         -4.99509        5.67532        5.04503
H         -4.08772        4.18948        4.82232
H         -7.08020        4.47033        4.20478
H         -6.38575        3.79974        5.68257
H         -6.12510        2.97560        4.14641
H         -2.45929        5.31546        3.31648
H         -3.29223        6.85512        3.45819
H         -2.57839        5.41983        0.84778
H         -1.86154        6.89204        1.49871
H         -3.52881        6.91668        0.92487
H         -5.73855        7.78376        3.68604
H         -8.65926        7.71268        0.48422
H         -7.78099        5.58122       -0.32066
H         -7.69457        9.36013        3.65751
H         -8.35288        9.90897        0.68019
H        -10.33125       11.39723        0.67851
H         -8.22618       13.77060        4.54124
H         -7.38347       11.58902        3.83309
H        -10.10617       14.83802       -0.28866
H        -11.79583       15.21508       -0.55329
H        -10.49420       12.49732       -1.08557
H        -10.98720       13.69116       -2.25639
H        -12.21827       12.86166       -1.30340
H        -12.84518       12.95805        2.51255
H        -12.80270       12.40352        0.85864
H        -14.20608       14.91546        1.89154
H        -14.92975       13.42160        1.33938
H        -14.11121       14.46648        0.17065
H        -12.74780       16.67673        1.33499
H        -10.51698       18.06424        4.76908
H         -9.26945       15.93503        4.85592
H        -13.31312       18.77480        3.61282
H        -11.02305       19.68350        1.72250
H        -14.63661       20.19476        2.55468
H        -11.98656       24.35773        1.77555
H        -10.83744       22.18058        1.87528
H        -18.04855       22.24699        1.44763
H        -17.01430       20.83570        1.58622
H        -16.46363       23.16027       -0.33321
H        -17.25129       21.63486       -0.74622
H        -15.56557       21.63111       -0.23470
H        -16.74363       21.17643        3.98831
H        -17.74749       22.61675        3.97464
H        -14.92022       22.38825        5.13011
H        -16.43747       22.56133        6.00923
H        -15.83489       23.90822        5.04031
H        -18.22065       24.72803        2.40687
H        -15.33272       27.88914        1.67851
H        -13.50780       26.26873        1.70239
H        -18.84992       27.18242        2.65751
H        -17.12872       28.76987        0.63113
H        -18.75710       30.45334        1.69667
H        -23.86205       31.12265        2.11791
H        -23.47252       26.39440        0.47361
H        -26.64830       30.48794        2.41451
