121

C        -19.40541        8.53822        2.81898
C        -20.44302        8.69477        1.96139
C        -21.80658        8.53729        2.34849
N        -22.91944        8.40609        2.65571
C        -20.25422        9.09086        0.60558
N        -20.10176        9.40952       -0.49944
C        -19.50225        8.26732        4.28741
C        -18.25827        8.54332        4.86155
C        -17.95370        8.32732        6.19942
C        -18.97535        7.82446        7.03418
C        -20.24358        7.59054        6.48083
C        -20.52631        7.79535        5.10458
S        -21.35135        7.03299        7.68668
C        -20.16324        7.06419        8.88526
C        -18.94132        7.47802        8.42805
Br       -20.48665        6.58260       10.66650
C        -17.30963        9.03215        3.84964
O        -16.25364        9.58027        4.07745
C        -17.96394        8.76075        2.53099
C        -17.26055        8.55991        1.40185
C        -15.80442        8.70739        1.20456
C        -15.33886        9.97470        0.80547
C        -13.99997       10.18600        0.43330
C        -13.08568        9.13848        0.45163
C        -13.51845        7.90089        0.89898
C        -14.85890        7.67720        1.26922
N        -14.98360        6.32326        1.64353
C        -16.18878        5.68529        2.08989
C        -13.75223        5.65523        1.59709
O        -13.53339        4.49139        1.90036
C        -12.73258        6.61683        0.98705
C        -11.39273        6.58116        1.72656
C        -11.35319        7.51350        2.94813
O        -12.04111        7.39832        3.95069
N        -10.38388        8.49492        2.69734
C        -10.04102        9.53512        3.62970
C         -9.72391        8.26616        1.48505
C         -8.71742        9.00219        0.87716
C         -8.22344        8.56070       -0.36201
C         -8.76356        7.39043       -0.94473
C         -9.77346        6.65858       -0.31857
C        -10.26127        7.12767        0.88574
C         -7.21264        9.36347       -1.07602
C         -6.31762        8.82827       -1.92192
C         -5.44992        9.64131       -2.69344
O         -4.99260       10.90731       -2.32754
C         -4.91310        9.40267       -3.92941
C         -4.89507        8.43161       -4.97875
O         -5.46287        7.35525       -5.01307
N         -4.11095        9.01055       -5.95758
C         -3.65642       10.27580       -5.64090
O         -2.99049       11.02597       -6.33002
C         -4.17627       10.51294       -4.33168
C         -4.21410       11.46152       -3.34796
C         -3.64115       12.75795       -3.31617
C         -3.26677       13.30396       -2.15339
C         -2.63998       14.60635       -2.05256
C         -1.41474       14.81334       -1.54997
C         -0.82824       16.10442       -1.27953
C          0.28824       16.03344       -0.53738
C          0.65408       14.67443       -0.17316
S         -0.33704       13.53053       -1.07250
C          1.52057       14.29597        0.78371
C          2.27468       15.16620        1.66491
C          2.88749       14.52019        2.66806
C          2.69644       13.08871        2.63157
S          1.77891       12.61169        1.23011
C          3.20281       12.21997        3.51872
C          3.02828       10.78518        3.43895
C          3.99675        9.86553        3.35288
C          5.46168        9.93140        3.32248
C          6.24572       10.80558        2.64377
C          7.66826       10.70980        2.62222
N          8.82338       10.64351        2.62583
C          5.74415       11.81635        1.77540
N          5.43780       12.63743        1.01548
C          5.94235        8.62434        3.86064
C          4.87746        7.71915        3.82293
C          3.62202        8.41888        3.50046
O          2.52066        7.91577        3.43347
C          5.01266        6.35918        4.07383
C          6.30545        5.87861        4.38681
C          7.35380        6.80216        4.52370
C          7.18497        8.18856        4.29815
S          8.82801        6.01642        4.96108
C          8.11269        4.49171        4.87042
C          6.77348        4.53421        4.58707
Br         9.06586        2.90079        5.13006
H        -16.95260        8.51988        6.57598
H        -21.52147        7.56130        4.74391
H        -18.05546        7.54873        9.04801
H        -17.74842        8.24018        0.48479
H        -16.02304       10.81992        0.75753
H        -13.67834       11.17335        0.10991
H        -12.06579        9.30186        0.11931
H        -16.95526        5.76485        1.31416
H        -16.52641        6.14886        3.01929
H        -16.01189        4.62248        2.28161
H        -12.59537        6.25457       -0.04237
H        -11.11656        5.57314        2.05867
H        -10.85619        9.68382        4.34390
H         -9.85860       10.47574        3.10291
H         -9.14435        9.23466        4.17986
H         -8.32724        9.90361        1.33766
H         -8.41383        7.04247       -1.91497
H        -10.16705        5.75959       -0.78234
H         -7.25571       10.44043       -0.92172
H         -6.27400        7.75677       -2.09458
H         -3.92801        8.57249       -6.84375
H         -3.47357       13.27397       -4.25696
H         -3.36741       12.74759       -1.22077
H         -3.26406       15.45087       -2.33237
H         -1.28208       17.03200       -1.59907
H          0.83481       16.90276       -0.20114
H          2.31744       16.23858        1.54139
H          3.47985       15.01155        3.42675
H          3.78432       12.58644        4.36068
H          1.98726       10.45281        3.48132
H          4.15917        5.69126        3.99315
H          8.03331        8.85062        4.43000
H          6.14780        3.65443        4.49715
