85

C         -8.48588       -0.21056        7.15359
C         -7.63125       -0.06708        8.19617
C         -7.16985       -1.16122        8.98284
N         -6.77776       -2.04302        9.62693
C         -7.13076        1.19730        8.62760
N         -6.72104        2.21745        8.99142
C         -9.11118       -1.49955        6.68918
C        -10.00342       -1.21046        5.65696
C        -10.72634       -2.16019        4.94053
C        -10.60088       -3.50886        5.32728
C         -9.75829       -3.81849        6.40489
C         -8.99358       -2.83047        7.08800
S         -9.80789       -5.51295        6.75420
C        -10.89246       -5.80950        5.49404
C        -11.23190       -4.68397        4.79382
Br       -11.57034       -7.51014        5.09454
C        -10.12937        0.23337        5.46588
O        -11.03179        0.75729        4.84455
C         -9.03437        0.86840        6.28109
C         -8.66237        2.15182        6.10244
C         -9.23485        3.10777        5.16381
C         -9.26345        3.00452        3.82580
C        -10.01087        3.87752        2.94866
C        -10.28008        3.31086        1.76012
C         -9.74576        1.96198        1.64142
S         -8.54698        1.70311        2.91074
C        -10.14556        0.99907        0.78975
C        -11.14164        1.11830       -0.25784
C        -11.42902       -0.04023       -0.87115
C        -10.71128       -1.17857       -0.32824
S         -9.57298       -0.66633        0.88644
C        -10.96910       -2.45649       -0.65114
C        -10.39276       -3.62578        0.00569
C        -10.88684       -4.87231       -0.01974
C        -10.40235       -5.95676        0.80546
C        -11.21328       -7.02569        0.82306
C        -12.38384       -6.87416       -0.01781
S        -12.27605       -5.36630       -0.93405
C        -13.46036       -7.67780       -0.07399
C        -13.74239       -8.86080        0.71628
C        -15.01086       -9.28986        0.61454
C        -15.81930       -8.47484       -0.27919
S        -14.82595       -7.32044       -1.10704
C        -17.15474       -8.55384       -0.38630
C        -18.08761       -7.70764       -1.16867
C        -17.79121       -7.03732       -2.37287
C        -18.73932       -6.25296       -3.05314
C        -20.01304       -6.26979       -2.48899
N        -20.36387       -6.90035       -1.33901
C        -19.39237       -7.58423       -0.70479
N        -18.34642       -5.54171       -4.21942
C        -19.08526       -4.72102       -5.03354
S        -20.36140       -3.71396       -4.43238
C        -20.87064       -3.28300       -5.97335
N        -22.07646       -2.52587       -6.15823
O        -22.36707       -2.23816       -7.32753
O        -22.74240       -2.22166       -5.16087
C        -19.99905       -3.69952       -6.94665
C        -18.89989       -4.45046       -6.39738
C        -17.78955       -4.91623       -7.19083
C        -17.57614       -4.62904       -8.48578
H        -11.37714       -1.85910        4.12341
H         -8.36420       -3.15613        7.90712
H        -11.91391       -4.67576        3.95131
H         -7.86576        2.60708        6.68008
H         -9.71624        3.96155        5.63781
H        -10.38541        4.84259        3.25954
H        -10.89723        3.77614        1.00563
H        -11.62038        2.05350       -0.51187
H        -12.16220       -0.13633       -1.66088
H        -11.72307       -2.64506       -1.41226
H         -9.53385       -3.44215        0.64697
H         -9.49820       -5.87868        1.39116
H        -11.02358       -7.90760        1.41784
H        -13.01103       -9.32072        1.36685
H        -15.41354      -10.12488        1.16719
H        -17.65895       -9.29130        0.23983
H        -16.80613       -7.12862       -2.81559
H        -20.86125       -5.78748       -2.95360
H        -19.71581       -8.05233        0.22154
H        -17.39449       -5.75968       -4.50142
H        -20.13845       -3.46815       -7.99608
H        -17.02907       -5.52035       -6.70041
H        -18.24694       -4.01970       -9.08149
H        -16.68999       -4.99614       -8.99951
