89

C        -13.01378        0.32413        4.59015
C        -13.08524        1.13545        5.67359
C        -14.25859        1.34045        6.45473
N        -15.20480        1.53134        7.09345
C        -11.96719        1.85507        6.17409
N        -11.07590        2.45707        6.60754
C        -14.12356       -0.56400        4.12646
C        -13.64575       -1.40350        3.11988
C        -14.39156       -2.44220        2.56332
C        -15.68359       -2.68742        3.08849
C        -16.18405       -1.81305        4.06083
C        -15.43756       -0.72074        4.55690
S        -17.76717       -2.26947        4.57483
C        -17.74822       -3.64337        3.59840
C        -16.62287       -3.74466        2.82258
Br       -19.13280       -4.90446        3.59525
C        -12.25307       -1.06917        2.78134
O        -11.62041       -1.59367        1.88533
C        -11.82722        0.03168        3.71964
C        -10.61107        0.60143        3.66897
C         -9.47499        0.25814        2.81702
C         -8.86767        1.10914        1.94204
O         -7.73374        0.73676        1.20742
C         -7.25690       -0.50094        1.44485
C         -7.86657       -1.37510        2.36419
C         -7.21135       -2.57496        2.46708
S         -5.84913       -2.62464        1.41114
C         -6.15010       -1.03136        0.83512
O         -8.97496       -1.03233        3.06261
C         -9.28961        2.47660        1.68291
C         -8.78372        3.29583        0.73941
C         -9.25136        4.62642        0.48402
C        -10.28554        5.27709        1.13651
C        -11.34791        5.27999        2.15332
C        -11.65876        6.71297        1.65586
C        -10.57442        6.49827        0.68155
S         -9.67222        7.01867       -0.56982
C         -8.73964        5.49657       -0.50162
C         -7.67199        5.35584       -1.43699
C         -6.37423        5.63387       -1.14352
O         -5.37519        5.54092       -2.13109
C         -5.78596        5.17179       -3.36385
C         -7.13048        4.85506       -3.64456
C         -7.33136        4.48853       -4.94795
S         -5.86199        4.55912       -5.84045
C         -4.96859        5.07379       -4.46039
O         -8.09522        4.92157       -2.70048
C         -5.86294        6.12440        0.13473
C         -4.58597        5.96204        0.52666
C         -3.97286        6.53109        1.70921
C         -4.35086        6.41782        2.98822
C         -5.47791        5.74660        3.62758
C         -5.80258        4.43645        3.51385
C         -6.84193        3.83815        4.28466
N         -7.70254        3.37188        4.90506
C         -4.98461        3.53675        2.77120
N         -4.27253        2.78689        2.23617
C         -5.87154        6.60895        4.76878
C         -4.76581        7.40471        5.09277
C         -3.73627        7.29864        4.03622
O         -2.66038        7.85606        4.00965
C         -4.71294        8.21611        6.21650
C         -5.87076        8.27881        7.02815
C         -7.01527        7.56088        6.63879
C         -7.04032        6.71636        5.50436
S         -8.33094        7.84950        7.71952
C         -7.38754        8.84401        8.70216
C         -6.10399        8.99775        8.25098
Br        -8.04254        9.66241       10.25404
H        -13.96243       -3.08041        1.79554
H        -15.90961       -0.09027        5.29775
H        -16.44473       -4.55478        2.12657
H        -10.34271        1.42543        4.32614
H         -7.44923       -3.42205        3.09359
H         -5.50698       -0.57520        0.09513
H        -10.09241        2.83823        2.31584
H         -7.98684        2.92511        0.09575
H        -10.97325        5.13850        3.17325
H        -12.09762        4.49476        2.00149
H        -11.46112        7.54823        2.33718
H        -12.63378        6.92040        1.20287
H         -8.25766        4.19259       -5.43182
H         -3.90829        5.27198       -4.52992
H         -6.56183        6.68378        0.75262
H         -3.88569        5.43267       -0.11944
H         -3.09679        7.14398        1.48359
H         -3.81740        8.78451        6.45230
H         -7.94814        6.18090        5.24649
H         -5.35536        9.59851        8.75348
