93

C        -18.89891       -7.43434       -0.49686
C        -17.88771       -8.15627        0.05252
C        -17.85696       -9.58456        0.06246
N        -17.81029      -10.74271        0.06613
C        -16.74311       -7.57457        0.67003
N        -15.80069       -7.13550        1.18444
C        -20.14255       -8.01110       -1.11561
C        -20.93026       -6.96601       -1.59481
C        -22.17699       -7.11976       -2.19382
C        -22.69583       -8.42435       -2.29823
C        -21.91706       -9.49189       -1.83136
C        -20.63470       -9.30692       -1.24937
S        -22.73805      -10.99716       -2.04765
C        -24.09981      -10.23455       -2.68975
C        -23.96149       -8.87752       -2.80141
Br       -25.65186      -11.15622       -3.18797
C        -20.30404       -5.67140       -1.34469
O        -20.80625       -4.61311       -1.66370
C        -19.00941       -5.94814       -0.63047
C        -18.18291       -4.95905       -0.24387
C        -18.33367       -3.52761       -0.48570
C        -17.48265       -2.56076       -0.10816
C        -17.60990       -1.17314       -0.49345
C        -16.51466       -0.44290       -0.23208
C        -15.44561       -1.20810        0.38650
S        -16.03858       -2.80978        0.82700
C        -14.15333       -0.85213        0.50439
C        -13.53014        0.36355        0.01469
C        -12.19749        0.25680       -0.12105
C        -11.68889       -1.04631        0.26112
S        -12.91418       -1.93718        1.12847
C        -10.48131       -1.53589       -0.06483
C        -10.10035       -2.87635        0.23543
S         -9.20798       -3.24802        1.68253
C        -10.34168       -4.04620       -0.43928
C        -10.95906       -4.45459       -1.67932
O        -11.38638       -3.72455       -2.55786
N        -10.90886       -5.84050       -1.65903
C        -11.39472       -6.68221       -2.73146
C        -12.86133       -7.04018       -2.56347
C        -10.39705       -6.35332       -0.48094
O        -10.40139       -7.51263       -0.09353
C         -9.93828       -5.20302        0.25310
C         -9.20335       -4.95097        1.37868
C         -8.48828       -5.87143        2.21411
O         -8.27788       -5.68759        3.57433
C         -7.87036       -7.04447        1.89135
C         -7.54597       -7.87892        0.77394
O         -7.62994       -7.61684       -0.41315
N         -6.96866       -8.99143        1.34229
C         -6.75331       -8.87709        2.69775
O         -6.15187       -9.67207        3.39627
C         -7.35466       -7.62237        3.05542
C         -7.56637       -6.76893        4.11423
C         -7.20609       -6.81086        5.49300
C         -6.46642       -7.80230        6.00818
C         -6.06876       -7.91521        7.39563
C         -5.04113       -8.65494        7.84694
C         -4.72358       -8.81336        9.24374
C         -3.64895       -9.58022        9.46942
C         -3.01020      -10.08643        8.26465
S         -3.88889       -9.51932        6.84733
C         -1.91788      -10.87599        8.22513
C         -1.20523      -11.38731        9.38456
C         -0.15931      -12.16940        9.08761
C          0.04528      -12.32987        7.67226
S         -1.14226      -11.45375        6.74540
C          1.01807      -13.05727        7.11723
H        -22.73840       -6.25298       -2.53297
H        -20.10839      -10.18788       -0.90553
H        -24.72759       -8.22035       -3.19539
H        -17.26646       -5.20181        0.27868
H        -19.18280       -3.21096       -1.08409
H        -18.48915       -0.78730       -0.99167
H        -16.42132        0.60015       -0.49806
H        -14.09010        1.24242       -0.27238
H        -11.56694        1.03671       -0.52478
H         -9.78755       -0.93749       -0.64706
H        -10.79805       -7.60187       -2.75301
H        -11.24999       -6.16038       -3.68355
H        -13.02634       -7.60183       -1.63829
H        -13.19765       -7.65868       -3.40188
H        -13.48437       -6.14120       -2.52751
H         -6.58102       -9.74528        0.80275
H         -7.52708       -5.97750        6.11206
H         -6.12953       -8.61941        5.38317
H         -6.68832       -7.37790        8.11080
H         -5.31426       -8.36200       10.02842
H         -3.29014       -9.79669       10.46432
H         -1.49681      -11.17154       10.40154
H          0.47207      -12.64078        9.82748
H          1.73919      -13.59464        7.72407
H          1.12198      -13.13745        6.04001
