91

C         -3.39276       -2.33678       -1.28434
C         -3.73600       -3.49040       -0.66526
C         -2.76288       -4.40359       -0.15759
N         -1.96505       -5.14074        0.25206
C         -5.09571       -3.83640       -0.40242
N         -6.20577       -4.10400       -0.20358
C         -2.01145       -1.80267       -1.48245
C         -2.11358       -0.42051       -1.66172
C         -1.04000        0.41323       -1.94204
C          0.23058       -0.18439       -2.08129
C          0.35158       -1.57093       -1.88946
C         -0.76033       -2.40273       -1.58331
S          1.99316       -2.07793       -2.09730
C          2.49998       -0.51187       -2.47335
C          1.48959        0.40995       -2.43490
Br         4.26988       -0.07754       -2.90746
C         -3.51749        0.00796       -1.60101
O         -3.88607        1.13750       -1.36764
C         -4.31234       -1.25524       -1.72751
C         -5.48079       -1.39226       -2.38149
C         -6.20209       -0.36259       -3.05531
O         -5.94359        1.01301       -3.02447
C         -7.26914       -0.49806       -3.92132
C         -8.10234       -1.47786       -4.53144
O         -8.04955       -2.68712       -4.40360
N         -8.94711       -0.74679       -5.34760
C         -8.68352        0.60830       -5.36354
O         -9.20984        1.46090       -6.04153
C         -7.61474        0.75615       -4.42351
C         -6.80407        1.70927       -3.87808
C         -6.77713        3.09863       -4.15252
C         -6.23795        4.00162       -3.32061
C         -6.14447        5.38762       -3.73742
C         -5.03091        6.14684       -3.65511
C         -3.78167        5.72923       -2.93218
C         -4.91901        7.46763       -4.39705
N         -4.98616        7.19386       -5.82772
C         -3.95741        7.02480       -6.73698
C         -2.70664        7.52014       -6.78826
C         -1.78309        7.26446       -7.89119
C         -1.27289        6.00994       -7.95664
F         -1.39028        5.07132       -7.00113
C         -0.81749        5.66373       -9.26821
C         -1.06058        6.69400      -10.08585
C         -1.62033        7.81872       -9.29029
C         -1.77299        9.02991       -9.89593
C         -1.89015       10.44751       -9.44489
C         -2.30389       11.17509      -10.51321
C         -2.34031       10.33821      -11.66790
C         -1.96029        9.09792      -11.36879
F         -2.60729       10.79364      -12.90346
C         -1.31945       11.16658       -8.29663
C         -1.67071       11.01023       -6.94285
O         -2.80070       10.35181       -6.50815
C         -3.93718       10.29280       -7.36529
C         -0.89814       11.56840       -5.86517
O         -1.21878       11.07463       -4.61572
C         -0.94068       11.90603       -3.49957
C          0.14824       12.48678       -6.05368
C          0.42245       12.82861       -7.39183
C         -0.28664       12.14781       -8.53679
N          0.17338       12.58743       -9.72650
S          1.28742       13.77511       -9.43133
N          1.32064       13.74862       -7.77676
H         -1.19173        1.47799       -2.09708
H         -0.60347       -3.47131       -1.48078
H          1.62080        1.46288       -2.65548
H         -5.88840       -2.39044       -2.53102
H         -9.63485       -1.17266       -5.94378
H         -7.18514        3.41946       -5.11007
H         -5.80869        3.69938       -2.36869
H         -7.00298        5.76661       -4.29281
H         -3.40823        6.55486       -2.31718
H         -3.00984        5.44870       -3.65381
H         -3.93945        4.88691       -2.25306
H         -4.00992        8.01570       -4.12911
H         -5.76437        8.10970       -4.11619
H         -5.81894        6.66452       -6.07522
H         -4.30031        6.39674       -7.56014
H         -2.32558        8.12078       -5.96999
H         -0.38869        4.71224       -9.53326
H         -0.78851        6.71290      -11.12853
H         -2.38659       12.24982      -10.58698
H         -1.89388        8.30140      -12.08458
H         -3.82276        9.53027       -8.13739
H         -4.17207       11.25961       -7.81550
H         -4.78954        9.97858       -6.75775
H         -1.50423       12.84054       -3.57413
H          0.12992       12.09516       -3.37729
H         -1.27611       11.37395       -2.60463
H          0.73063       12.92921       -5.25928
