102

C         -5.36108        2.04171        0.58413
C         -4.60713        1.95836        1.70596
C         -4.45918        3.04338        2.61616
N         -4.33880        3.92675        3.36128
C         -3.96198        0.74639        2.10359
N         -3.43577       -0.23371        2.41705
C         -6.18174        3.21054        0.14958
C         -7.14349        2.75738       -0.75666
C         -8.05407        3.58186       -1.40535
C         -7.98831        4.96646       -1.13805
C         -7.02813        5.43276       -0.22604
C         -6.10949        4.57080        0.42685
S         -7.12895        7.14878       -0.04360
C         -8.39064        7.25820       -1.15882
C         -8.75881        6.04916       -1.68436
Br        -9.20355        8.87802       -1.63156
C         -6.99295        1.31650       -0.99873
O         -7.79198        0.62532       -1.59264
C         -5.69069        0.94057       -0.35002
C         -4.92336       -0.08093       -0.76363
C         -5.31725       -0.98215       -1.79625
S         -4.86820       -0.59827       -3.41436
C         -5.64908       -1.97414       -4.03704
C         -6.22965       -2.75532       -3.05828
C         -6.95772       -4.02993       -3.34870
C         -6.01889       -2.18326       -1.74641
C         -6.53151       -2.79307       -0.54883
C         -5.96561       -2.78031        0.66748
C         -6.55330       -3.45639        1.79947
C         -5.98404       -3.43198        3.01212
C         -6.54804       -4.10779        4.15585
C         -6.02146       -4.14202        5.39679
C         -4.75437       -3.44910        5.81937
C         -6.71443       -4.91859        6.48936
N         -6.19288       -6.26680        6.47467
C         -6.88715       -7.39246        6.82270
C         -6.42944       -8.65089        6.81730
C         -7.31368       -9.77485        7.15161
C         -7.47922      -10.27633        8.46985
C         -6.62358       -9.72166        9.59983
C         -5.31936      -10.48366        9.82125
C         -8.43858      -11.30315        8.69026
C         -9.15142      -11.81544        7.58844
C         -8.94931      -11.34497        6.29870
C         -8.04273      -10.32057        6.08376
C         -8.75948      -11.80921       10.04554
C         -9.64474      -12.78316       10.31893
C        -10.01812      -13.18812       11.65132
C         -9.21684      -13.65728       12.61559
C         -7.77188      -13.89801       12.68058
C         -7.00039      -14.47888       11.72886
C         -5.59034      -14.62630       11.85619
N         -4.43693      -14.70867       11.95256
C         -7.57289      -15.12350       10.59306
N         -8.02806      -15.73347        9.71371
C         -7.38912      -13.75800       14.11546
C         -8.56306      -13.80266       14.87861
C         -9.75156      -13.75962       14.00821
O        -10.90981      -13.76383       14.36804
C         -8.58124      -13.89872       16.26418
C         -7.33570      -13.97601       16.92819
C         -6.15859      -13.85592       16.17269
C         -6.16330      -13.70847       14.76421
S         -4.75812      -13.95260       17.17963
C         -5.69149      -14.23213       18.55653
C         -7.03928      -14.19391       18.31782
Br        -4.94934      -14.56817       20.24284
H         -8.76257        3.17027       -2.11947
H         -5.36823        5.00341        1.08938
H         -9.54016        5.92390       -2.42456
H         -3.91921       -0.23157       -0.38062
H         -5.64347       -2.15486       -5.10304
H         -7.03665       -4.20592       -4.42681
H         -7.97403       -4.00002       -2.94323
H         -6.42698       -4.87969       -2.90716
H         -7.46345       -3.34495       -0.66349
H         -5.02159       -2.27338        0.84614
H         -7.48106       -3.99806        1.63039
H         -5.05286       -2.88744        3.14387
H         -7.46721       -4.66576        3.96979
H         -4.44369       -2.65767        5.13367
H         -3.94011       -4.17633        5.89368
H         -4.88411       -2.97080        6.79561
H         -7.80038       -4.91876        6.32861
H         -6.54459       -4.45835        7.46899
H         -5.21856       -6.38357        6.21425
H         -7.91827       -7.18830        7.11007
H         -5.41770       -8.89561        6.51673
H         -7.18706       -9.70226       10.53567
H         -6.39294       -8.66767        9.42011
H         -5.49727      -11.51855       10.13144
H         -4.73844       -9.99730       10.61405
H         -4.69997      -10.50334        8.91898
H         -9.89879      -12.59390        7.70976
H         -9.51269      -11.76653        5.47121
H         -7.90774       -9.94190        5.07322
H         -8.27614      -11.30633       10.87397
H        -10.19840      -13.29066        9.53474
H        -11.07986      -13.04730       11.86608
H         -9.52172      -13.96489       16.80454
H         -5.21734      -13.62023       14.24273
H         -7.79200      -14.34469       19.08226
