107

C         -9.04609       -0.47262       -5.91744
C         -9.55308       -1.71331       -5.73776
C        -10.85762       -2.08064       -6.18111
N        -11.92015       -2.38082       -6.54546
C         -8.79274       -2.76121       -5.16786
N         -8.16474       -3.62675       -4.68958
C         -9.71965        0.66529       -6.62607
C         -8.73723        1.57119       -7.02668
C         -8.99115        2.77190       -7.67814
C        -10.33948        3.12103       -7.89820
C        -11.34190        2.21533       -7.51551
C        -11.05255        0.97662       -6.88054
S        -12.90925        2.83188       -7.91083
C        -12.26454        4.26921       -8.51887
C        -10.89981        4.32798       -8.44015
Br       -13.31233        5.64910       -9.23150
C         -7.41349        1.13579       -6.57453
O         -6.36668        1.59087       -6.98418
C         -7.65924       -0.00139       -5.61950
C         -6.81597       -0.34725       -4.62547
C         -5.61112        0.36157       -4.32414
O         -5.44707        1.73445       -4.52609
C         -4.43840       -0.04339       -3.73654
C         -3.76982       -1.19291       -3.20401
O         -4.17476       -2.33938       -3.15997
N         -2.54947       -0.70952       -2.77065
C         -2.35525        0.63256       -3.01695
O         -1.37025        1.30112       -2.76829
C         -3.57594        1.05188       -3.62762
C         -4.17138        2.15785       -4.16424
C         -3.66242        3.47054       -4.35536
C         -4.40154        4.42040       -4.95347
C         -3.93314        5.74953       -5.21173
C         -4.10229        6.71999       -4.24795
S         -3.46978        8.21546       -4.73379
C         -2.96749        7.59158       -6.24633
C         -3.28211        6.24854       -6.41979
C         -2.92316        5.65487       -7.67959
C         -3.30543        4.20609       -7.97547
C         -4.68942        4.06673       -8.59268
C         -2.20950        6.44536       -8.68911
C         -1.81437        5.77969      -10.00168
C         -2.84852        5.96451      -11.10317
C         -1.88919        7.83466       -8.44831
C         -1.17680        8.88350       -9.20350
C         -1.16570       10.08923       -8.53121
S         -1.92797       10.00986       -7.02414
C         -2.30348        8.35592       -7.22473
C         -0.52631        8.76890      -10.48620
C          0.55991        9.45901      -10.88825
C          1.29677        9.21440      -12.12478
C          1.90951        8.06119      -12.44467
C          2.75232        7.81186      -13.59332
C          3.35053        6.60425      -13.58251
C          2.98959        5.78023      -12.43903
S          1.83058        6.65157      -11.44013
C          3.43188        4.56309      -12.06183
C          4.51086        3.76179      -12.60779
C          4.81243        2.68158      -11.86004
C          3.96960        2.52171      -10.68891
S          2.71372        3.71723      -10.68109
C          4.14299        1.66066       -9.67040
N          3.32986        1.57686       -8.55696
C          3.64540        2.27283       -7.39644
C          4.81809        3.12312       -7.11300
C          2.46407        2.24753       -6.62105
C          1.48231        1.61280       -7.23882
C          1.96603        1.17793       -8.54032
O          1.29530        0.61368       -9.38352
C          0.33190        1.80482       -6.41024
C         -1.01034        1.26584       -6.75582
N          0.58871        2.50786       -5.34111
C          1.91977        2.87825       -5.42702
O          2.53997        3.62785       -4.69466
H         -8.17650        3.43573       -7.95241
H        -11.87871        0.34268       -6.57594
H        -10.31124        5.18288       -8.75214
H         -7.06014       -1.14897       -3.93561
H         -1.84421       -1.28610       -2.34520
H         -2.63739        3.67632       -4.05146
H         -5.41724        4.19601       -5.27385
H         -4.56169        6.62287       -3.27344
H         -3.27643        3.62139       -7.05613
H         -2.56186        3.69983       -8.59243
H         -5.46257        4.53385       -7.97689
H         -4.93585        3.01089       -8.73277
H         -4.75693        4.52656       -9.57364
H         -1.56977        4.72365       -9.87713
H         -0.86035        6.18691      -10.32891
H         -3.79830        5.49484      -10.86704
H         -2.49844        5.50835      -12.03337
H         -3.06844        7.01937      -11.28848
H         -0.73605       11.02792       -8.85144
H         -0.91814        8.02950      -11.17427
H          0.99905       10.22490      -10.25264
H          1.42167       10.08797      -12.75936
H          2.88613        8.54866      -14.37461
H          4.01001        6.26389      -14.36915
H          5.06270        4.04435      -13.49457
H          5.62329        2.00142      -12.08703
H          4.99041        0.98290       -9.65086
H          5.74985        2.64290       -7.41969
H          4.89388        3.31968       -6.03723
H          4.72874        4.09114       -7.61612
H         -1.01266        0.17689       -6.66474
H         -1.26050        1.54863       -7.78096
H         -1.76243        1.68273       -6.08305
