82

C         -1.33660       -0.62757        1.39768
C         -1.61405       -1.72802        0.64965
C         -0.60752       -2.52652        0.03127
N          0.20643       -3.18045       -0.47890
C         -2.94294       -2.17843        0.37118
N         -4.00237       -2.56187        0.12251
C          0.03494       -0.07131        1.67190
C         -0.10397        1.12969        2.36715
C          0.94877        1.93728        2.78426
C          2.25665        1.51235        2.48619
C          2.42441        0.30786        1.78845
C          1.32788       -0.49916        1.37645
S          4.10231       -0.01722        1.52184
C          4.57170        1.38589        2.33542
C          3.51681        2.12679        2.79410
Br         6.36074        1.87769        2.59141
C         -1.50726        1.44540        2.61000
O         -1.88368        2.45318        3.17045
C         -2.30541        0.30443        2.04517
C         -3.63100        0.21631        2.24110
C         -4.48480        1.19853        2.89965
C         -5.67423        0.94842        3.46433
C         -6.54214        1.95304        4.03418
C         -7.77653        1.49753        4.29905
C         -7.96010        0.10096        3.93791
S         -6.39686       -0.63005        3.58842
C         -9.12588       -0.54121        3.74075
C        -10.45626        0.02698        3.84280
C        -11.39597       -0.70485        3.22741
C        -10.87001       -1.90353        2.60488
S         -9.23025       -2.18689        3.11010
C        -11.54596       -2.63235        1.70424
C        -10.97949       -3.70971        0.96130
S        -10.44132       -3.33480       -0.64496
C        -10.01902       -4.94796       -0.97357
C        -10.22846       -5.75798        0.11729
C        -10.78341       -5.05700        1.24206
S        -11.08634       -5.96342        2.74808
C        -12.40999       -5.07747        3.42186
C        -13.68516       -5.44593        3.24052
N        -14.82590       -4.75914        3.58764
C        -16.13204       -4.93490        3.21703
S        -17.28223       -3.84689        3.94260
C        -18.58223       -4.57637        3.15945
N        -19.90803       -4.07772        3.35750
O        -20.77778       -4.91767        3.62215
O        -20.08729       -2.86322        3.20490
C        -18.21895       -5.63574        2.36994
C        -16.78865       -5.79790        2.33362
C        -16.20642       -6.75854        1.43383
C        -15.12452       -6.53683        0.67005
C        -14.59192       -7.49542       -0.23543
S        -12.91548       -7.87868       -0.13731
C        -12.95054       -8.83508       -1.54340
C        -14.22518       -8.94826       -2.04086
C        -15.16935       -8.19795       -1.27681
S        -16.87494       -8.14238       -1.71504
C        -17.18820       -9.82601       -1.47856
C        -18.37916      -10.35601       -1.76513
H          0.75747        2.86284        3.32125
H          1.54791       -1.41810        0.84790
H          3.62012        3.06033        3.33474
H         -4.18118       -0.64862        1.88812
H         -4.14609        2.23129        2.88197
H         -6.22403        2.97546        4.19163
H         -8.56555        2.12143        4.69424
H        -10.65896        0.98027        4.31142
H        -12.43349       -0.41048        3.14477
H        -12.55160       -2.33937        1.42192
H         -9.63054       -5.22686       -1.94461
H        -10.01242       -6.81938        0.09372
H        -12.16282       -4.18796        3.98743
H        -13.87554       -6.38805        2.74380
H        -14.64151       -3.94291        4.16807
H        -18.92623       -6.22010        1.78952
H        -16.74788       -7.69788        1.32595
H        -14.58547       -5.59584        0.74764
H        -12.04389       -9.27616       -1.93504
H        -14.46763       -9.53309       -2.91892
H        -16.40106      -10.47419       -1.10126
H        -19.20350       -9.76390       -2.14649
H        -18.54130      -11.41980       -1.62869
