86

C         -7.43001       -2.48469       -0.73827
C         -7.54490       -3.46629       -1.67009
C         -8.68764       -4.31118       -1.76562
N         -9.62227       -4.99709       -1.84523
C         -6.56124       -3.68515       -2.67139
N         -5.74763       -3.88137       -3.48625
C         -8.46338       -2.09810        0.26932
C         -8.18730       -0.79850        0.69678
C         -8.93145       -0.11647        1.65162
C        -10.03612       -0.78421        2.22416
C        -10.32215       -2.09320        1.80535
C         -9.54083       -2.77387        0.83362
S        -11.71079       -2.71683        2.62608
C        -11.90886       -1.29273        3.51052
C        -10.96751       -0.34003        3.22443
Br       -13.28285       -1.04592        4.75941
C         -6.98171       -0.27898        0.04006
O         -6.63460        0.88237        0.04083
C         -6.36159       -1.45890       -0.64750
C         -5.05170       -1.56435       -0.92651
C         -4.08752       -0.54963       -0.64406
S         -3.57779        0.48453       -1.91766
C         -2.36014        1.18788       -0.95732
C         -2.37092        0.73512        0.34876
C         -1.43909        1.24919        1.39795
C         -3.39525       -0.26429        0.52974
C         -3.67341       -0.93736        1.76590
C         -4.57016       -0.48856        2.65918
C         -4.91320       -1.16244        3.89037
C         -5.38356       -2.41694        3.93720
C         -5.76730       -3.06904        5.16841
C         -5.73589       -4.39936        5.38667
C         -5.17833       -5.40639        4.41326
C         -6.17083       -4.97609        6.71347
N         -7.58131       -5.29006        6.66302
C         -8.12449       -6.48120        6.26676
C         -9.42435       -6.77548        6.15948
C         -9.89583       -8.07808        5.72994
C        -11.07208       -8.32110        5.13330
C        -11.55135       -9.62816        4.74766
C        -12.79448       -9.61603        4.24292
C        -13.39219       -8.29146        4.18786
S        -12.21504       -7.08325        4.69362
C        -14.65793       -7.98165        3.84906
C        -15.70985       -8.90153        3.46008
C        -16.89903       -8.31451        3.25697
C        -16.88743       -6.88529        3.47462
S        -15.28120       -6.33211        3.87250
C        -17.97006       -6.09405        3.40229
C        -17.91115       -4.69847        3.67551
S        -18.18806       -4.12619        5.28850
C        -17.87540       -2.49362        4.85461
C        -17.61714       -2.39290        3.51527
C        -17.64152       -3.63101        2.84830
S        -17.29809       -3.59860        1.12992
C        -17.04628       -1.84272        1.02286
S        -16.65794       -1.06750       -0.40510
S        -17.25579       -0.97623        2.56071
H         -8.65321        0.89042        1.95361
H         -9.80446       -3.79459        0.57810
H        -10.93120        0.63569        3.69527
H         -4.63006       -2.47393       -1.33857
H         -1.69713        1.92462       -1.39007
H         -0.68525        1.91673        0.96364
H         -0.90849        0.43181        1.89548
H         -1.99704        1.82075        2.14541
H         -3.13185       -1.86114        1.95599
H         -5.09117        0.45243        2.48270
H         -4.79610       -0.57740        4.80148
H         -5.51665       -2.97777        3.01548
H         -6.13109       -2.41338        5.95883
H         -4.64323       -4.94681        3.57713
H         -5.97721       -6.02951        4.00254
H         -4.45232       -6.05463        4.91618
H         -5.99211       -4.26099        7.52494
H         -5.58488       -5.86867        6.96344
H         -8.22616       -4.53469        6.87575
H         -7.37601       -7.22336        5.99847
H        -10.16697       -6.01773        6.40030
H         -9.22661       -8.91154        5.93726
H        -10.96125      -10.52482        4.87474
H        -13.30941      -10.51036        3.92289
H        -15.55394       -9.96542        3.35550
H        -17.79424       -8.85100        2.97392
H        -18.94024       -6.51128        3.15070
H        -17.90379       -1.71253        5.60184
