104

C         -8.34086       -0.02227       -0.28241
C         -8.12968       -0.89263       -1.30143
C         -9.15769       -1.72014       -1.83570
N         -9.99887       -2.39609       -2.27449
C         -6.87407       -0.99077       -1.97193
N         -5.85064       -1.07856       -2.50840
C         -9.65499        0.26868        0.35984
C         -9.58062        1.53264        0.94965
C        -10.63064        2.13085        1.63485
C        -11.83139        1.39803        1.76642
C        -11.90426        0.11430        1.20251
C        -10.82351       -0.47242        0.49617
S        -13.44646       -0.60839        1.50043
C        -13.99083        0.74878        2.34332
C        -13.05696        1.74564        2.43143
Br       -15.70550        0.87290        3.08725
C         -8.22538        2.09128        0.81862
O         -7.90885        3.22334        1.11509
C         -7.39006        0.98308        0.24717
C         -6.05840        0.88734        0.39036
C         -5.23291        1.86003        1.03162
S         -4.55666        3.09472        0.05011
C         -3.66266        3.73825        1.34174
C         -3.83405        3.04653        2.52544
C         -3.08384        3.40040        3.77344
C         -4.77223        1.95016        2.34750
C         -5.15757        1.04084        3.40482
C         -5.52137       -0.24233        3.23427
C         -5.92472       -1.12768        4.29490
C         -6.32386       -2.38788        4.06176
C         -6.78830       -3.18967        5.13849
S         -8.47101       -3.16910        5.50958
C         -8.32063       -4.27707        6.83279
C         -6.99832       -4.65706        6.97076
C         -6.12574       -4.04860        5.98858
C         -4.75254       -4.30614        5.90323
C         -4.32243       -5.22435        6.88015
F         -3.02335       -5.56172        6.89380
C         -5.17473       -5.81796        7.84803
F         -4.64540       -6.67234        8.73819
C         -6.54998       -5.57021        7.93504
C         -9.51671       -4.64147        7.52118
C         -9.53496       -4.96031        8.82559
C        -10.73351       -5.34744        9.53305
C        -11.50611       -6.40163        9.24376
C        -12.77397       -6.68089        9.87070
C        -13.49380       -7.59668        9.20547
C        -12.82841       -8.09946        8.01210
S        -11.15374       -7.57634        8.00145
C        -13.41029       -8.72613        6.97374
C        -14.82685       -8.99976        6.84118
C        -15.20675       -9.18748        5.57032
C        -14.11174       -9.10106        4.62493
S        -12.58320       -9.13386        5.46404
C        -14.18629       -8.89142        3.30011
C        -15.41325       -8.56842        2.59572
C        -16.15968       -7.48232        2.85477
C        -17.61158       -7.48015        2.48710
O        -18.15862       -8.09193        1.59583
C        -18.26152       -6.67317        3.54469
C        -19.62094       -6.54908        3.76924
C        -20.03766       -5.89285        4.93558
C        -19.06847       -5.41431        5.86925
C        -19.50259       -4.82449        7.06334
C        -20.86175       -4.67809        7.31451
C        -21.81239       -5.10591        6.39783
C        -21.40234       -5.71827        5.21301
F        -21.25981       -4.11185        8.46095
C        -17.69451       -5.53543        5.59285
C        -17.29431       -6.12975        4.40656
C        -15.96234       -6.38771        3.81299
C        -14.86764       -5.59782        3.93209
C        -13.73502       -5.74855        3.07093
N        -12.83643       -5.83700        2.35461
C        -14.82106       -4.49117        4.81941
N        -14.79667       -3.58914        5.56143
H        -10.51242        3.11621        2.07702
H        -10.93510       -1.48071        0.11204
H        -13.22261        2.68585        2.94362
H         -5.52324       -0.00536        0.07497
H         -3.02366        4.59195        1.16320
H         -2.41633        4.25668        3.60764
H         -2.46008        2.55938        4.09207
H         -3.76483        3.67063        4.58514
H         -5.13424        1.43955        4.41974
H         -5.51972       -0.69051        2.24877
H         -5.91265       -0.72775        5.30376
H         -6.35249       -2.81574        3.06188
H         -4.06701       -3.87956        5.18398
H         -7.14585       -6.07171        8.68127
H        -10.44425       -4.65396        6.94934
H         -8.65001       -4.91779        9.44914
H        -10.99876       -4.68184       10.35045
H        -13.12243       -6.15184       10.74701
H        -14.49088       -7.88832        9.49934
H        -15.51453       -8.99778        7.67450
H        -16.23049       -9.36717        5.27131
H        -13.27990       -8.86889        2.69475
H        -15.76778       -9.32837        1.90060
H        -20.32960       -6.97990        3.06757
H        -18.79706       -4.46933        7.80960
H        -22.86692       -4.96502        6.61322
H        -22.15914       -6.05666        4.50710
H        -16.96925       -5.17770        6.31857
