104

C         -8.60503       -1.10642        1.80984
C         -7.96948       -2.21848        2.25790
C         -8.62085       -3.23247        3.01551
N         -9.15052       -4.05553        3.64601
C         -6.60550       -2.48885        1.94090
N         -5.48732       -2.69367        1.69504
C        -10.05679       -0.80903        1.96194
C        -10.42375        0.10420        0.96998
C        -11.69821        0.64623        0.85355
C        -12.65148        0.29696        1.83899
C        -12.28503       -0.61518        2.84126
C        -10.99290       -1.19041        2.91614
S        -13.58919       -0.89320        3.93892
C        -14.56923        0.23631        3.15985
C        -13.98964        0.78156        2.04542
Br       -16.28123        0.69278        3.76609
C         -9.24386        0.52052        0.18986
O         -9.25730        1.19161       -0.81929
C         -8.06355       -0.05477        0.91967
C         -6.82012        0.45729        0.87243
C         -6.44143        1.60229        0.10401
S         -6.61078        3.13485        0.89648
C         -5.97250        4.03461       -0.41681
C         -5.44382        3.17270       -1.36112
C         -5.83453        1.76842       -1.13612
C         -5.55509        0.74312       -2.07756
C         -5.99526       -0.69564       -2.17299
F         -6.76839       -1.17392       -1.16741
F         -6.71705       -0.91875       -3.31177
F         -4.93469       -1.54965       -2.25302
C         -4.77641        1.23969       -3.17336
C         -4.34802        2.58505       -3.35029
C         -4.68929        3.62077       -2.46880
O         -4.26500        4.91429       -2.59119
C         -4.10947        5.38287       -3.92555
C         -6.05424        5.45913       -0.36004
C         -6.86875        6.12084       -1.20187
C         -6.99019        7.56528       -1.19831
C         -8.11655        8.27069       -1.01109
C         -8.14682        9.71175       -0.89848
C         -9.27844       10.17790       -0.35047
C        -10.22606        9.13272        0.00097
S         -9.70460        7.60267       -0.72098
C        -11.23065        9.24530        0.89152
C        -11.48902       10.39444        1.74605
C        -12.02525       10.04191        2.92791
C        -12.21719        8.60674        3.03959
S        -12.23578        7.90879        1.43845
C        -12.25275        7.95554        4.21295
C        -12.25382        6.54580        4.40246
S        -13.24823        5.81040        5.59632
C        -12.69092        4.19985        5.28040
C        -11.77453        4.30548        4.27875
C        -11.42775        5.59598        3.85316
S         -9.99928        5.70594        2.73204
C        -10.08657        3.96550        2.67225
C        -10.98877        3.36580        3.55090
C        -13.11120        3.06134        6.08343
S        -12.04967        1.73136        6.32563
C        -13.12556        0.89576        7.36995
C        -14.23062        1.68867        7.64210
C        -14.28195        2.87227        6.80789
C        -15.48263        3.78255        6.83512
C        -16.70346        3.13956        7.52427
C        -17.83550        4.16074        7.60875
C        -16.25669        2.57574        8.89654
C        -17.41010        2.12822        9.79309
C        -15.30543        1.38624        8.65423
C        -12.73947       -0.39969        7.83004
C        -13.62259       -1.36184        8.12606
H        -11.92328        1.37464        0.07887
H        -10.76158       -1.85142        3.74432
H        -14.47075        1.51938        1.41462
H         -6.04286        0.07491        1.52817
H         -4.48776        0.53082       -3.95634
H         -3.73148        2.79383       -4.22252
H         -4.00655        6.47178       -3.88671
H         -4.98659        5.15015       -4.53895
H         -3.19656        4.98153       -4.37654
H         -5.47515        5.98168        0.39566
H         -7.47379        5.58246       -1.92939
H         -6.04655        8.09792       -1.30553
H         -7.31121       10.33814       -1.17828
H         -9.45118       11.22408       -0.14542
H        -11.19307       11.40379        1.50018
H        -12.21133       10.73064        3.74087
H        -12.25332        8.55144        5.12403
H         -9.41365        3.46470        1.99295
H        -11.06844        2.29131        3.63281
H        -15.75617        4.05803        5.80956
H        -15.21748        4.69782        7.37853
H        -17.05828        2.30612        6.90138
H        -17.57926        4.98587        8.28057
H        -18.75934        3.69574        7.96582
H        -18.04814        4.58043        6.61932
H        -15.70732        3.36087        9.43624
H        -18.03578        1.38141        9.29424
H        -18.04172        2.97467       10.07898
H        -17.02642        1.68619       10.71940
H        -15.89449        0.53322        8.30033
H        -14.83779        1.10184        9.60569
H        -11.67924       -0.63492        7.89224
H        -14.69473       -1.23640        8.03408
H        -13.28233       -2.34054        8.44937
