96

C         -7.39768        3.92476        2.43329
C         -7.20795        3.76821        3.77312
C         -8.15282        4.18768        4.74038
N         -8.91598        4.52513        5.55561
C         -6.04440        3.17589        4.35278
N         -5.11069        2.70165        4.85194
C         -8.58768        4.57945        1.78415
C         -8.40711        4.55199        0.40290
C         -9.28490        5.09555       -0.53052
C        -10.39994        5.79590       -0.03998
C        -10.60721        5.83691        1.34590
C         -9.73209        5.20302        2.27125
S        -12.01172        6.77063        1.72672
C        -12.26856        7.16459        0.10486
C        -11.39042        6.55429       -0.74824
Br       -13.60944        8.33864       -0.46986
C         -7.14698        3.91623        0.04165
O         -6.82420        3.74559       -1.11284
C         -6.47894        3.52320        1.32939
C         -5.30023        2.88008        1.38317
C         -4.38494        2.50222        0.30744
N         -3.65474        1.40263        0.54741
C         -2.75710        1.08432       -0.39937
C         -2.57738        1.80910       -1.55445
C         -3.37245        2.92465       -1.69590
N         -4.24258        3.31102       -0.74409
C         -3.27582        3.77276       -2.89070
C         -4.31587        4.47370       -3.37449
C         -4.24631        5.36213       -4.48799
C         -3.96155        6.70850       -4.34790
C         -3.70026        7.54719       -3.14866
N         -3.96425        7.25517       -5.60472
C         -4.26501        6.29922       -6.54556
C         -4.34210        6.66302       -7.98486
C         -4.47408        5.10177       -5.87531
C         -4.82309        3.87483       -6.53446
C         -5.54413        2.87703       -5.99853
C         -5.81231        1.61325       -6.66096
C         -5.43086        0.41682       -6.18392
C         -5.74921       -0.85994       -6.77956
C         -5.29604       -1.91153       -6.07904
C         -4.56618       -1.55028       -4.87378
S         -4.47813        0.20450       -4.73474
C         -4.01040       -2.39193       -3.97979
C         -4.00588       -3.84195       -4.03836
C         -3.26654       -4.42213       -3.08161
C         -2.65599       -3.48101       -2.16933
S         -3.13735       -1.85331       -2.54183
C         -1.83123       -3.82977       -1.17119
C         -1.21565       -2.93507       -0.21318
C         -1.33704       -2.93727        1.12454
C         -2.06741       -3.75271        2.11308
C         -2.24979       -5.09433        2.12815
C         -2.88897       -5.77884        3.20112
N         -3.41205       -6.35341        4.06664
C         -1.72505       -5.97945        1.14682
N         -1.30366       -6.75233        0.38994
C         -2.31973       -2.85592        3.28768
C         -1.52134       -1.71719        3.16076
C         -0.84296       -1.71327        1.85260
O         -0.08471       -0.85868        1.44167
C         -1.43020       -0.72341        4.13227
C         -2.19895       -0.87766        5.31091
C         -3.04776       -1.98938        5.41621
C         -3.13866       -2.97807        4.40558
S         -3.92039       -1.97463        6.90740
C         -3.16137       -0.55436        7.40937
C         -2.27980       -0.05396        6.48807
Br        -3.49886        0.25223        9.06625
H         -9.07128        5.03114       -1.59486
H         -9.96987        5.28055        3.32502
H        -11.40279        6.67576       -1.82516
H         -4.88650        2.53047        2.31709
H         -2.17120        0.19370       -0.19932
H         -1.86827        1.49633       -2.30750
H         -2.30858        3.81955       -3.37880
H         -5.28557        4.39955       -2.88854
H         -3.29466        6.95606       -2.32225
H         -4.62947        8.01706       -2.80990
H         -2.97918        8.33981       -3.37429
H         -3.78012        8.22856       -5.80755
H         -4.03413        7.70160       -8.15089
H         -5.36737        6.55589       -8.35204
H         -3.68530        6.02324       -8.58160
H         -4.45437        3.75337       -7.55056
H         -5.93938        2.96353       -4.98837
H         -6.40156        1.67435       -7.57279
H         -6.31821       -0.94982       -7.69506
H         -5.46636       -2.93546       -6.38040
H         -4.53815       -4.40712       -4.79009
H         -3.14292       -5.49254       -2.98104
H         -1.53638       -4.86915       -1.12024
H         -0.66693       -2.11163       -0.67941
H         -0.78591        0.13970        3.98809
H         -3.83451       -3.79672        4.54675
H         -1.70924        0.85518        6.63449
