113

C         -3.34491        7.36868        7.66442
C         -2.68726        6.46538        8.43610
C         -2.92621        6.31538        9.83562
N         -3.11037        6.18487       10.97584
C         -1.70674        5.57086        7.92722
N         -0.89773        4.84542        7.51638
C         -4.39090        8.33965        8.14497
C         -4.85330        9.06307        7.04726
C         -5.83295       10.04805        7.09069
C         -6.33742       10.40522        8.35172
C         -5.86648        9.72009        9.48097
C         -4.91496        8.66436        9.39425
S         -6.57611       10.36262       10.92204
C         -7.43328       11.53386       10.05780
C         -7.26746       11.43851        8.70355
Br        -8.49192       12.84931       10.86838
C         -4.09593        8.74377        5.84513
O         -4.13809        9.43058        4.84295
C         -3.20872        7.59069        6.19158
C         -2.45193        6.99521        5.24552
N         -2.37807        7.11501        3.86277
C         -3.36721        7.27303        2.92856
C         -4.71481        7.09689        3.16587
S         -5.68350        7.42674        1.79640
C         -4.30436        7.70957        0.82999
C         -3.12768        7.55470        1.53157
N         -1.88154        7.65766        0.97556
C         -1.53674        7.20576       -0.28761
C         -1.74629        7.76884       -1.48881
C         -1.10652        7.25656       -2.72019
C         -0.76285        5.90066       -2.86939
C          0.16885        5.52890       -3.83254
C          0.69620        6.51034       -4.70073
C          0.20248        7.80774       -4.70278
C         -0.69654        8.18043       -3.69880
C          1.90280        6.00216       -5.31584
C          2.14589        4.69939       -4.84051
C          0.93870        4.19463       -3.99040
C          1.48155        3.63530       -2.64445
C          0.53286        2.91720       -1.69136
C          0.19094        3.18527       -4.90789
C         -1.08689        2.54468       -4.38740
C          3.36368        4.06740       -5.09018
C          4.36651        4.75448       -5.79321
C          4.07876        6.02796       -6.32596
C          2.84876        6.65681       -6.08909
C          5.69500        4.11826       -5.91509
C          6.84929        4.80173       -5.90332
C          8.18671        4.23957       -5.87291
C          8.76697        3.31713       -6.66171
C         10.17989        3.01690       -6.59102
C         10.63760        2.33688       -7.65241
C          9.60988        1.99961       -8.62116
S          8.02232        2.42761       -7.96368
C          9.81585        1.59900       -9.89180
C         11.06994        1.69751      -10.61981
C         10.86586        2.01048      -11.91393
C          9.44750        2.13038      -12.24090
S          8.56178        1.21069      -11.05774
C          8.98632        2.93147      -13.21766
C          7.63515        3.29283      -13.57309
S          7.42272        3.85221      -15.23049
C          5.72818        4.02097      -15.08744
C          5.30495        3.66298      -13.83679
C          6.39601        3.37068      -12.94683
C          6.16235        3.13430      -11.58043
C          4.80058        2.95507      -11.22766
C          4.59668        2.44979       -9.89749
N          4.44740        1.96571       -8.85268
C          3.72706        3.20901      -12.14397
O          2.38018        3.15379      -11.85373
C          1.92051        2.12129      -10.98756
C          3.95321        3.65055      -13.47574
H         -6.14264       10.56021        6.18345
H         -4.60197        8.18995       10.31741
H         -7.73997       12.09690        7.98390
H         -1.70168        6.26534        5.52871
H         -1.42719        6.98793        3.52600
H         -5.20084        6.81908        4.08731
H         -4.42830        7.96861       -0.21074
H         -1.11670        7.47515        1.61803
H         -0.93288        6.30474       -0.19892
H         -2.25034        8.72904       -1.54998
H         -1.14538        5.17756       -2.16365
H          0.58954        8.55632       -5.38628
H         -0.99112        9.22541       -3.62698
H          1.95253        4.45780       -2.08808
H          2.28685        2.91791       -2.84418
H         -0.42661        3.41292       -1.56042
H          0.99624        2.84766       -0.70082
H          0.34838        1.89042       -2.01525
H          0.87530        2.37412       -5.19312
H         -0.07248        3.68689       -5.85125
H         -0.87139        1.70834       -3.71956
H         -1.65105        2.12133       -5.22667
H         -1.73643        3.25759       -3.87610
H          3.55916        3.07516       -4.69495
H          4.82820        6.56348       -6.90376
H          2.67536        7.66282       -6.45677
H          5.69883        3.03227       -5.93564
H          6.83515        5.88653       -5.80798
H          8.81913        4.74298       -5.13972
H         10.80847        3.35571       -5.77925
H         11.67401        2.05829       -7.77720
H         12.04293        1.64577      -10.15525
H         11.65430        2.22482      -12.62159
H          9.75386        3.40162      -13.83461
H          5.14355        4.36161      -15.93195
H          6.93278        3.07350      -10.83513
H          0.84387        2.00834      -11.14698
H          2.04596        2.40998       -9.94143
H          2.39298        1.15775      -11.20701
H          3.13652        3.89854      -14.14273
