82

C         -2.59920       -0.92596        0.41603
C         -2.43501       -1.76103       -0.63953
C         -1.52885       -2.85772       -0.63526
N         -0.78542       -3.75582       -0.64669
C         -3.17004       -1.65067       -1.85647
N         -3.74516       -1.58361       -2.86061
C         -1.92022       -1.05720        1.75092
C         -2.48338       -0.13664        2.63517
C         -2.12832       -0.01539        3.97703
C         -1.14239       -0.89062        4.48077
C         -0.54978       -1.80490        3.59983
C         -0.91192       -1.89109        2.22969
S          0.62950       -2.77456        4.41053
C          0.32925       -2.01880        5.88817
C         -0.61234       -1.02469        5.80994
Br         1.19550       -2.49611        7.47862
C         -3.49524        0.68555        1.96641
O         -4.11332        1.58132        2.50563
C         -3.55465        0.21344        0.53836
C         -4.37299        0.78677       -0.36130
C         -5.35368        1.82589       -0.08324
C         -6.67089        1.70099       -0.31187
C         -7.67173        2.67592        0.05185
C         -8.93188        2.23897       -0.10018
C         -9.02201        0.87960       -0.60368
S         -7.41008        0.28301       -1.00598
C        -10.12629        0.11247       -0.67273
C        -11.47266        0.46186       -0.25285
C        -12.26587       -0.60716       -0.06885
C        -11.58068       -1.85981       -0.31315
S        -10.08507       -1.57911       -1.16017
C        -11.97800       -3.04851        0.16237
C        -11.15633       -4.21263        0.11385
S        -10.11733       -4.54936        1.44093
C         -9.55958       -6.02372        0.76036
C        -10.25740       -6.30564       -0.40613
C        -11.04329       -5.18729       -0.86215
C        -11.71897       -5.17525       -2.20583
C        -11.47731       -6.45408       -3.02396
C        -11.43912       -7.70195       -2.12893
N        -11.35654       -8.92607       -2.93270
C        -10.23242       -7.59969       -1.17607
C         -8.55986       -6.76696        1.45727
C         -7.70678       -7.56486        0.79859
C         -6.73066       -8.39956        1.44782
C         -6.29101       -9.53272        0.88136
C         -5.34318      -10.41046        1.51862
C         -4.11216      -10.01364        1.86688
C         -3.16467      -10.88857        2.51022
C         -1.94936      -10.47359        2.89160
C         -1.01130      -11.34411        3.55367
C         -0.04663      -10.88020        4.35491
H         -2.61329        0.72000        4.61335
H         -0.39364       -2.61787        1.61729
H         -0.92864       -0.42635        6.65422
H         -4.41632        0.45454       -1.39296
H         -4.97908        2.72522        0.40157
H         -7.41514        3.64736        0.45094
H         -9.79789        2.82742        0.16674
H        -11.78794        1.47539       -0.04989
H        -13.27999       -0.55439        0.30337
H        -12.90207       -3.12954        0.72712
H        -11.35041       -4.31987       -2.78634
H        -12.79603       -5.03421       -2.06505
H        -10.52296       -6.36528       -3.56269
H        -12.25851       -6.54028       -3.78806
H        -12.36441       -7.74944       -1.54018
H        -10.48047       -8.94439       -3.45317
H        -12.10100       -8.92659       -3.62886
H         -9.30319       -7.65497       -1.75592
H        -10.24834       -8.44724       -0.47880
H         -8.51255       -6.68760        2.54040
H         -7.72315       -7.62899       -0.28503
H         -6.37944       -8.09860        2.43179
H         -6.69025       -9.87901       -0.07000
H         -5.67621      -11.43257        1.68176
H         -3.79585       -8.99189        1.66319
H         -3.48533      -11.90708        2.71826
H         -1.63818       -9.44525        2.71726
H         -1.10928      -12.41543        3.39159
H          0.05928       -9.82136        4.57020
H          0.63755      -11.56336        4.84661
