124

C        -12.81830       -0.75915       -7.08213
C        -13.86385       -1.49403       -6.63150
C        -14.73383       -2.21489       -7.50248
N        -15.43025       -2.81083       -8.20924
C        -14.13305       -1.68272       -5.24140
N        -14.35502       -1.83607       -4.11840
C        -12.39105       -0.60585       -8.50733
C        -11.06970       -0.14950       -8.52811
C        -10.35070        0.09543       -9.69301
C        -11.01296       -0.09407      -10.92771
C        -12.34986       -0.52193      -10.91482
C        -13.05864       -0.78218       -9.71394
S        -12.97406       -0.66409      -12.52020
C        -11.51551       -0.15960      -13.20122
C        -10.54560        0.10930      -12.27255
Br       -11.25809        0.02227      -15.04785
C        -10.59146        0.11904       -7.16296
O         -9.48365        0.50364       -6.84514
C        -11.76686       -0.11754       -6.26854
C        -11.76967        0.36161       -5.01591
N        -10.76279        1.03117       -4.34199
C        -10.78848        1.50638       -3.06090
S        -11.79487        0.76816       -1.85422
C        -11.21124        1.77816       -0.64679
N        -11.68949        1.60084        0.68660
O        -10.82912        1.44669        1.56254
O        -12.91359        1.64422        0.86230
C        -10.27806        2.68180       -1.08857
C        -10.04591        2.55352       -2.50686
C         -9.14398        3.44739       -3.20262
C         -9.26893        3.90174       -4.46398
C         -8.33943        4.85792       -5.09513
C         -7.23425        4.33780       -5.79346
C         -6.31820        5.17718       -6.45678
C         -6.48812        6.56122       -6.45618
C         -7.58639        7.08224       -5.78881
C         -8.48761        6.24983       -5.09897
N         -9.45395        7.07200       -4.49086
C        -10.57342        6.61488       -3.72496
C         -9.22025        8.42554       -4.72882
O         -9.85311        9.37853       -4.29801
C         -8.00212        8.52798       -5.63402
C         -8.41712        9.32406       -6.87393
C         -9.17949        8.47165       -7.90281
O        -10.28276        7.97277       -7.74205
N         -8.36975        8.37250       -9.03880
C         -8.72831        7.64128      -10.22287
C         -7.20822        9.13762       -8.90261
C         -6.15225        9.28927       -9.77810
C         -5.08172       10.10447       -9.38173
C         -5.13988       10.79524       -8.14718
C         -6.20750       10.62473       -7.27209
C         -7.21577        9.76596       -7.65954
C         -3.92645       10.24235      -10.27948
C         -2.68553       10.43949       -9.81457
C         -1.52219       10.62252      -10.65511
C         -0.27773       10.83652      -10.20133
C          0.86243       11.11064      -11.04102
C          1.96327       11.44777      -10.35363
C          1.76858       11.47427       -8.91373
S          0.16923       10.87149       -8.51428
C          2.61489       11.98254       -8.00046
C          3.89525       12.60423       -8.27438
C          4.34533       13.35643       -7.26076
C          3.45309       13.36636       -6.12117
S          2.22974       12.14038       -6.28562
C          3.50385       14.29037       -5.15154
C          2.61949       14.38769       -4.00919
C          2.22355       15.46243       -3.30863
C          1.11369       15.22054       -2.31918
O          0.71335       14.16284       -1.87874
C          0.55694       16.53891       -1.99774
C         -0.46569       16.78569       -1.09049
C         -0.82680       18.11476       -0.84729
C         -0.21091       19.15558       -1.60113
C         -0.56642       20.48850       -1.34394
C         -1.47915       20.78887       -0.33797
C         -2.06770       19.77554        0.40459
C         -1.76110       18.44248        0.14814
F         -2.92680       20.07389        1.38871
F         -1.76828       22.07111       -0.07866
C          0.78333       18.85108       -2.55499
C          1.22949       17.54320       -2.70566
C          2.41225       16.92360       -3.39736
C          3.52524       17.61758       -3.74496
C          4.78997       17.01249       -3.97393
N          5.85189       16.56596       -4.14657
C          3.56724       19.04204       -3.80936
N          3.59817       20.19661       -3.88778
H         -9.32440        0.45049       -9.64708
H        -14.09897       -1.08181       -9.78092
H         -9.54795        0.44865      -12.52461
H        -12.67301        0.29531       -4.41954
H         -9.90660        1.15695       -4.89421
H         -9.80772        3.41514       -0.44319
H         -8.32147        3.84387       -2.60605
H        -10.09357        3.59471       -5.10144
H         -7.07499        3.26096       -5.83800
H         -5.46951        4.73903       -6.97941
H         -5.77139        7.19940       -6.96604
H        -10.21241        6.15739       -2.80142
H        -11.15634        5.90793       -4.31932
H        -11.22146        7.45607       -3.46348
H         -7.22440        9.04992       -5.06069
H         -9.02636       10.20616       -6.64044
H         -9.60612        7.01663      -10.03375
H         -7.89727        6.99907      -10.52743
H         -8.96581        8.35038      -11.02117
H         -6.13280        8.76582      -10.72691
H         -4.33892       11.46838       -7.84681
H         -6.23001       11.13779       -6.31555
H         -4.12054       10.15770      -11.34415
H         -2.52223       10.48777       -8.74009
H         -1.70094       10.62421      -11.72775
H          0.81026       11.08315      -12.12039
H          2.89330       11.72108      -10.83001
H          4.41109       12.51433       -9.21902
H          5.25797       13.93586       -7.29612
H          4.27458       15.03302       -5.26573
H          2.17839       13.42654       -3.72383
H         -0.92622       15.95842       -0.55511
H         -0.11349       21.31067       -1.89244
H         -2.23550       17.67531        0.75437
H          1.21090       19.67318       -3.11993
