84

C         -6.41072       -3.63668        2.55222
C         -6.97526       -3.58073        3.78597
C         -6.90451       -4.64727        4.72555
N         -6.85225       -5.51039        5.50355
C         -7.72938       -2.46113        4.24948
N         -8.34144       -1.55954        4.63869
C         -5.69011       -4.82077        1.96853
C         -5.46246       -4.57027        0.61525
C         -4.81422       -5.44453       -0.25151
C         -4.37819       -6.68208        0.26313
C         -4.60597       -6.95966        1.61867
C         -5.24703       -6.03583        2.49112
S         -4.01575       -8.53360        2.03062
C         -3.48076       -8.81910        0.45454
C         -3.71106       -7.77091       -0.39458
Br        -2.65592      -10.41352       -0.08191
C         -5.99918       -3.26716        0.21845
O         -6.06736       -2.87877       -0.92902
C         -6.46822       -2.59993        1.47887
C         -6.78275       -1.29189        1.51845
C         -6.74327       -0.31776        0.43459
C         -5.60363        0.05475       -0.16892
C         -7.95628        0.35586        0.09816
C         -9.00453        0.89625       -0.12302
C        -10.30932        1.44954       -0.21102
C        -10.70025        2.33335       -1.14100
C        -12.02504        2.90333       -1.16300
S        -13.23108        2.43272       -0.02669
C        -14.32710        3.68055       -0.44180
C        -13.89571        4.26525       -1.63391
C        -12.58602        3.81935       -2.04389
S        -11.74544        4.37116       -3.51296
C        -12.73486        5.67586       -4.08426
O        -12.36980        6.77423       -4.45078
C        -14.14507        5.12841       -4.16122
O        -14.67321        4.60614       -5.11730
S        -14.80768        5.45403       -2.58983
C        -15.57903        3.84328        0.36935
C        -16.78524        3.91868       -0.34282
C        -18.00179        4.10203        0.30234
C        -18.05076        4.28578        1.68007
C        -16.89118        4.16901        2.45572
C        -15.64398        3.89661        1.81762
C        -14.56662        3.66952        2.71992
C        -14.72843        3.70488        4.10372
C        -15.96245        4.04616        4.59165
N        -17.02108        4.28554        3.79799
C        -19.37192        4.47387        2.31335
C        -19.98654        5.62555        2.62408
C        -19.64172        7.04117        2.45346
C        -19.20381        7.66289        1.33162
C        -18.90384        9.05267        1.27333
N        -18.63101       10.18113        1.22181
C        -19.19900        7.02944        0.05588
N        -19.26946        6.60512       -1.02061
C        -20.27257        7.76796        3.59622
C        -21.22474        6.92238        4.17711
C        -21.12556        5.56657        3.60411
O        -21.81437        4.61214        3.89817
C        -22.13688        7.33847        5.14215
C        -22.10602        8.69925        5.53158
C        -21.10746        9.52878        4.99972
C        -20.15378        9.07088        4.06052
S        -21.23424       11.13912        5.60934
C        -22.61579       10.75800        6.49767
C        -22.97263        9.43819        6.41002
Br       -23.56415       12.02535        7.49862
H         -4.66188       -5.17815       -1.29392
H         -5.37132       -6.32427        3.52817
H         -3.43537       -7.76880       -1.44264
H         -7.10841       -0.81968        2.43996
H         -4.64765       -0.39422        0.07319
H         -5.60449        0.82031       -0.94029
H        -10.98215        1.09920        0.56264
H         -9.98516        2.66605       -1.89198
H        -16.81081        3.81143       -1.42487
H        -18.91415        4.11439       -0.29127
H        -13.57253        3.41568        2.37307
H        -13.90815        3.47157        4.77430
H        -16.14686        4.12895        5.65913
H        -19.79005        3.53512        2.68357
H        -22.87510        6.64894        5.54266
H        -19.40351        9.76391        3.69935
H        -23.82801        9.01113        6.91948
