97

C         -4.72720       -2.23960       -1.55872
C         -3.75307       -2.69484       -2.38425
C         -3.86928       -3.92703       -3.09155
N         -3.98453       -4.92242       -3.67802
C         -2.59991       -1.92347       -2.70178
N         -1.65283       -1.29861       -2.95569
C         -6.03403       -2.91111       -1.32065
C         -6.97305       -1.92890       -1.00792
C         -8.32398       -2.18463       -0.81916
C         -8.75709       -3.52422       -0.93121
C         -7.80165       -4.52758       -1.16202
C         -6.42442       -4.24412       -1.33743
S         -8.54226       -6.08823       -1.21279
C        -10.08560       -5.43133       -1.02646
C        -10.08188       -4.07342       -0.85488
Br       -11.64971       -6.46083       -1.05788
C         -6.32416       -0.61760       -0.86575
O         -6.91551        0.42637       -0.69313
C         -4.84596       -0.88134       -0.98783
C         -3.88603       -0.06890       -0.51750
C         -4.16272        1.18373        0.10174
S         -4.13203        2.60934       -0.85812
C         -4.51333        3.60084        0.47398
C         -4.62576        2.89902        1.65798
C         -4.91387        3.53929        2.97747
C         -4.43121        1.49082        1.42916
C         -4.50139        0.49643        2.45918
C         -5.63939       -0.13316        2.79079
C         -5.72733       -1.11258        3.84926
C         -6.87680       -1.73539        4.14549
C         -6.98483       -2.67182        5.20354
O         -8.19118       -2.87995        5.87349
C         -6.09307       -3.53594        5.78442
C         -4.73935       -3.99452        5.71039
O         -3.86609       -3.64660        4.93724
N         -4.64523       -4.94145        6.71197
C         -5.81457       -5.13349        7.41724
O         -6.01335       -5.88917        8.35041
C         -6.73845       -4.23516        6.80219
C         -8.04502       -3.84197        6.86720
C         -9.06589       -4.27981        7.74284
C        -10.29310       -3.74251        7.72897
C        -11.35335       -4.11132        8.64536
C        -11.25236       -4.34471        9.97242
C         -9.97815       -4.25309       10.77306
C        -12.47887       -4.66140       10.79330
N        -12.64706       -6.09796       10.86307
C        -13.71173       -6.72564       11.45539
C        -13.89614       -8.04698       11.57587
C        -15.05955       -8.62846       12.21437
C        -16.33778       -8.46766       11.85347
C        -16.98300       -7.73284       10.75901
C        -16.57393       -7.68501        9.46720
C        -17.26830       -6.95827        8.46015
N        -17.82713       -6.35084        7.64497
C        -15.50451       -8.49669        8.98285
N        -14.69780       -9.21123        8.54904
C        -18.34986       -7.36421       11.24054
C        -18.61248       -8.12193       12.38811
C        -17.41105       -8.85846       12.82241
O        -17.32110       -9.57396       13.79294
C        -19.85092       -8.15491       13.02295
C        -20.89728       -7.38627       12.46563
C        -20.62119       -6.57950       11.35049
C        -19.34318       -6.53296       10.73710
S        -22.03059       -5.71137       10.84970
C        -22.97970       -6.43718       12.04125
C        -22.27770       -7.28721       12.85317
Br       -24.81478       -6.11304       12.22961
H         -9.01702       -1.37498       -0.60748
H         -5.72828       -5.06211       -1.49318
H        -10.97588       -3.47944       -0.70728
H         -2.83684       -0.34545       -0.54758
H         -4.62611        4.66617        0.32813
H         -5.04828        4.62134        2.87024
H         -4.08256        3.37431        3.67062
H         -5.82805        3.13147        3.41988
H         -3.57712        0.27634        2.98865
H         -6.55524        0.10694        2.25129
H         -4.82112       -1.30351        4.42050
H         -7.78958       -1.50831        3.60162
H         -3.80167       -5.45320        6.90408
H         -8.80423       -5.04735        8.46531
H        -10.56392       -3.00485        6.97394
H        -12.33617       -4.16528        8.17408
H         -9.22037       -3.62275       10.29998
H         -9.55933       -5.25317       10.92546
H        -10.16311       -3.80407       11.75348
H        -13.36876       -4.20636       10.34122
H        -12.38737       -4.23979       11.80056
H        -11.80062       -6.65641       10.77666
H        -14.45053       -6.02619       11.84555
H        -13.15187       -8.74298       11.19216
H        -14.82033       -9.21166       13.10656
H        -20.00726       -8.77785       13.89971
H        -19.19869       -5.88300        9.88084
H        -22.71772       -7.83926       13.67503
