117

C         -7.36081       -2.65433        0.91721
C         -6.23697       -3.41942        0.89171
C         -6.21670       -4.76270        1.35359
N         -6.20001       -5.85861        1.73743
C         -5.00461       -2.95373        0.34601
N         -3.99794       -2.56885       -0.09388
C         -8.72847       -3.08746        1.33820
C         -9.65075       -2.18110        0.80851
C        -11.02387       -2.25265        1.00457
C        -11.50775       -3.25957        1.86511
C        -10.59200       -4.16162        2.43053
C         -9.19668       -4.10740        2.16141
S        -11.39755       -5.27402        3.48284
C        -12.89509       -4.53771        3.22479
C        -12.84525       -3.50509        2.32858
Br       -14.46800       -5.06773        4.09350
C         -8.96855       -1.07437        0.12821
O         -9.51824       -0.18677       -0.48688
C         -7.50560       -1.28647        0.38528
C         -6.59962       -0.29463        0.32988
C         -6.88391        1.09094       -0.04373
C         -6.78915        1.42471       -1.40749
C         -6.99717        2.73718       -1.85459
C         -7.30307        3.74716       -0.94802
C         -7.42214        3.41347        0.39487
C         -7.20442        2.10633        0.85773
N         -7.34474        2.10920        2.26230
C         -7.33173        0.99337        3.15925
C         -7.68404        3.37609        2.74151
O         -7.87195        3.69528        3.90714
C         -7.75713        4.31752        1.55156
C         -9.11948        5.02013        1.57957
C        -10.13836        4.43849        0.58851
O        -10.68815        3.35421        0.69420
N        -10.30089        5.37520       -0.44152
C        -11.14973        5.17961       -1.58358
C         -9.60547        6.55533       -0.16283
C         -9.47912        7.70571       -0.91093
C         -8.68279        8.74166       -0.39061
C         -8.10814        8.61339        0.89345
C         -8.24267        7.45059        1.63102
C         -8.95863        6.42083        1.06116
C         -8.43371        9.92495       -1.22333
C         -7.66082       10.96019       -0.85226
C         -7.39342       12.09551       -1.66996
S         -8.04611       12.21628       -3.24739
C         -7.22833       13.67856       -3.64202
C         -6.56294       14.14217       -2.52051
C         -6.64407       13.22617       -1.39582
C         -6.02223       13.45276       -0.15644
C         -5.32168       14.67098       -0.12644
F         -4.68817       14.99215        1.01415
C         -5.24182       15.57020       -1.22564
F         -4.53210       16.69845       -1.06591
C         -5.85252       15.35043       -2.47810
C         -7.40176       14.22438       -4.95310
C         -7.59324       13.43440       -6.02713
C         -7.88769       13.82494       -7.39240
C         -8.65712       14.83088       -7.83074
C         -8.91731       15.12889       -9.22226
C         -9.43614       16.35557       -9.41363
C         -9.54138       17.11323       -8.17459
S         -9.43108       16.00722       -6.81409
C         -9.58379       18.44976       -8.02373
C         -9.74569       19.44910       -9.05813
C         -9.53960       20.70615       -8.63337
C         -9.16273       20.80310       -7.23306
S         -9.27711       19.24215       -6.46784
C         -8.77604       21.93747       -6.62643
C         -8.35992       22.02088       -5.26212
S         -9.55830       22.29784       -4.01377
C         -8.41522       22.30849       -2.72574
C         -7.18132       22.15320       -3.24424
C         -7.14068       21.99530       -4.64510
C         -5.85941       21.83554       -5.29998
C         -4.79033       21.86744       -4.35969
S         -5.46535       22.08781       -2.68661
C         -3.50475       21.73581       -4.94634
C         -3.58799       21.59876       -6.32278
S         -5.22424       21.62465       -6.90242
C         -2.47232       21.48665       -7.20834
C         -2.53935       20.95960       -8.44073
H        -11.68632       -1.51083        0.56508
H         -8.54381       -4.82212        2.65124
H        -13.70470       -2.91309        2.03661
H         -5.56558       -0.42950        0.63327
H         -6.55101        0.65780       -2.14256
H         -6.92162        2.96196       -2.91570
H         -7.45443        4.76406       -1.29775
H         -6.80960        0.12723        2.76575
H         -8.36723        0.73556        3.40431
H         -6.83261        1.28947        4.08836
H         -6.91905        5.01693        1.68068
H         -9.58457        5.07006        2.56967
H        -11.47855        4.13689       -1.63905
H        -10.60351        5.42521       -2.49797
H        -12.03109        5.82218       -1.49172
H         -9.95043        7.79076       -1.88380
H         -7.51801        9.40593        1.33982
H         -7.76706        7.35273        2.60204
H         -8.90601        9.89191       -2.20214
H         -7.18068       10.96349        0.11616
H         -6.04828       12.80559        0.70627
H         -5.75490       16.05960       -3.28777
H         -7.41913       15.30624       -5.03406
H         -7.51307       12.35213       -5.92517
H         -7.45571       13.14762       -8.12824
H         -8.67533       14.43660      -10.01750
H         -9.64541       16.76504      -10.39155
H        -10.04123       19.20271      -10.06999
H         -9.63753       21.57393       -9.26958
H         -8.75962       22.86629       -7.19041
H         -8.68011       22.43569       -1.68508
H         -2.57740       21.74425       -4.38664
H         -1.50772       21.83482       -6.84870
H         -3.45486       20.56162       -8.86433
H         -1.65136       20.90510       -9.05969
