105

C          7.18774       15.51011       -2.30702
C          7.94059       14.41394       -2.03686
C          9.16065       14.47211       -1.31317
N         10.17097       14.51684       -0.71883
C          7.52407       13.09804       -2.40332
N          7.19654       12.02938       -2.69906
C          7.46073       16.90476       -1.83907
C          6.27600       17.63743       -1.93261
C          6.15381       18.98037       -1.59871
C          7.30820       19.64410       -1.13428
C          8.50693       18.92028       -1.03376
C          8.60733       17.54971       -1.39038
S          9.78414       19.92034       -0.43631
C          8.76942       21.26459       -0.32973
C          7.48606       21.01121       -0.73189
Br         9.34597       22.93935        0.27897
C          5.19061       16.80273       -2.45414
O          4.01225       17.06937       -2.35143
C          5.85261       15.55147       -2.95808
C          5.33435       14.77394       -3.92592
C          4.08253       15.00691       -4.65533
N          3.74890       16.27069       -4.94887
C          2.56186       16.44803       -5.54528
C          1.75388       15.41078       -5.93652
C          2.22723       14.13931       -5.67834
N          3.39740       13.91972       -5.04155
C          1.50035       12.92020       -6.06291
C          0.31598       12.88137       -6.69383
C         -0.34537       11.66677       -7.09919
C         -0.68275       10.66638       -6.27231
C         -1.34607        9.51830       -6.78399
O         -1.63437        9.33884       -8.12247
C         -2.28524        8.14042       -8.32114
C         -2.39888        7.54233       -7.07521
C         -1.80835        8.39338       -6.12836
O         -1.69330        8.16233       -4.80812
O         -2.95330        6.34574       -6.80030
C         -2.73199        7.70890       -9.60037
C         -2.09251        8.08715      -10.71834
C         -2.50755        7.67165      -12.03974
C         -3.69518        7.99056      -12.57941
C         -4.10986        7.52134      -13.88974
C         -5.28779        7.73991      -14.49551
C         -5.68366        7.10003      -15.73012
C         -7.01096        7.11333      -15.93470
C         -7.74436        7.80562      -14.88764
S         -6.59826        8.70107      -13.87154
C         -9.04350        7.66391      -14.55897
C         -9.97741        6.67306      -15.07111
C        -10.90265        6.32983      -14.15241
C        -10.75837        7.05852      -12.89354
S         -9.77329        8.47211      -13.16833
C        -11.21351        6.66070      -11.68898
C        -10.99490        7.36812      -10.45511
S        -12.13264        8.56554       -9.99461
C        -11.32253        8.96075       -8.52107
C        -10.09057        8.30784       -8.48613
C        -10.05316        7.20100       -9.43836
C         -9.01146        6.09763       -9.32919
O         -9.63877        4.87560       -8.89036
C         -8.73542        3.79482       -8.67921
C         -7.85167        6.43599       -8.37020
C         -7.64456        7.91308       -8.15025
C         -8.91126        8.56262       -7.54719
O         -8.67281        9.96950       -7.37773
C         -7.58013       10.27365       -6.51624
C        -11.89634        9.85677       -7.55749
C        -13.10751       10.42342       -7.67262
H          5.20235       19.49453       -1.70972
H          9.57266       17.06199       -1.31188
H          6.69604       21.75266       -0.74032
H          5.84834       13.89486       -4.29620
H          2.26150       17.48005       -5.69489
H          0.80734       15.61234       -6.41673
H          2.01385       11.99398       -5.81025
H         -0.20398       13.78351       -7.00114
H         -0.61106       11.62468       -8.15476
H         -0.46977       10.70919       -5.20790
H         -2.05861        7.27658       -4.62379
H         -3.23172        5.90582       -7.62132
H         -3.60092        7.06262       -9.65546
H         -1.18789        8.69241      -10.67366
H         -1.77793        7.08742      -12.59624
H         -4.39358        8.60406      -12.01110
H         -3.39903        6.86477      -14.38775
H         -4.97061        6.61715      -16.38481
H         -7.48925        6.64375      -16.78159
H         -9.88368        6.20087      -16.04149
H        -11.65353        5.56597      -14.30756
H        -11.77718        5.73740      -11.61478
H         -8.59676        5.93706      -10.32989
H         -9.31220        2.88898       -8.47978
H         -8.10776        3.96149       -7.79726
H         -8.10409        3.64118       -9.55768
H         -6.93155        5.99988       -8.78027
H         -7.98081        5.97695       -7.37996
H         -7.37296        8.40108       -9.09434
H         -6.77992        8.02286       -7.48723
H         -9.14296        8.12271       -6.56736
H         -7.56005       11.35283       -6.34985
H         -6.62306       10.00954       -6.97761
H         -7.68733        9.76404       -5.55409
H        -11.32812       10.05379       -6.65103
H        -13.75743       10.27684       -8.52908
H        -13.49619       11.06646       -6.88893
