96

C        -10.09358        3.53966       -4.38961
C        -10.64421        2.37151       -4.80160
C        -11.95321        2.32023       -5.32878
N        -13.04145        2.31036       -5.74850
C         -9.91561        1.14118       -4.82860
N         -9.30691        0.15828       -4.88154
C        -10.62999        4.90645       -4.64941
C         -9.58365        5.81843       -4.50219
C         -9.71287        7.18783       -4.70368
C        -10.96659        7.66852       -5.14414
C        -12.01365        6.75267       -5.31996
C        -11.87576        5.37312       -5.04314
S        -13.43528        7.52677       -5.91868
C        -12.68929        9.03839       -5.90435
C        -11.39142        9.00248       -5.46813
Br       -13.56292       10.60760       -6.43317
C         -8.33898        5.12502       -4.13653
O         -7.23548        5.62729       -4.13793
C         -8.74259        3.71457       -3.83878
C         -8.05699        2.85061       -3.07975
C         -6.70667        2.96336       -2.59236
C         -6.17721        3.93056       -1.79467
O         -4.83301        3.90168       -1.39441
C         -4.13577        2.80944       -1.78560
C         -4.70087        1.79483       -2.57994
C         -3.84263        0.76207       -2.85137
S         -2.31305        1.04717       -2.11845
C         -2.83073        2.55055       -1.45332
O         -5.97109        1.85228       -3.01095
C         -6.90304        5.05961       -1.23416
C         -7.96764        4.89310       -0.43967
C         -8.81343        5.93675        0.10657
C        -10.15369        5.84191        0.13060
C        -11.06121        6.69800        0.85754
C        -12.32911        6.25017        0.86664
C        -12.52325        5.01559        0.12179
S        -11.03610        4.59821       -0.72251
C        -13.61065        4.22002        0.10317
C        -14.84440        4.39418        0.84318
C        -15.65737        3.32550        0.80146
C        -15.14568        2.22718        0.00494
S        -13.66824        2.70130       -0.79262
C        -15.69683        1.00113       -0.05378
C        -15.22193       -0.14822       -0.82119
C        -15.27393       -1.44497       -0.41606
O        -14.78247       -2.50298       -1.19961
C        -14.23087       -2.14881       -2.38037
C        -14.19756       -0.81449       -2.80839
C        -13.60425       -0.66078       -4.02871
S        -13.05825       -2.16190       -4.65112
C        -13.65719       -3.01421       -3.27829
O        -14.71042        0.19597       -2.07956
C        -15.81949       -1.90269        0.84309
C        -15.12917       -2.66335        1.70754
C        -15.68701       -3.14494        2.95043
C        -16.74569       -3.95736        3.09537
C        -17.61951       -4.65425        2.13994
C        -17.23527       -5.32032        1.02812
C        -18.14020       -6.04522        0.20021
N        -18.88454       -6.63042       -0.47129
C        -15.86331       -5.49362        0.68721
N        -14.74797       -5.70169        0.43404
C        -18.93342       -4.83023        2.82130
C        -18.75432       -4.57603        4.18552
C        -17.39100       -4.06959        4.44300
O        -16.92945       -3.75767        5.52044
C        -19.75015       -4.76272        5.13821
C        -21.00935       -5.23281        4.69261
C        -21.19749       -5.45702        3.32012
C        -20.17901       -5.23825        2.36350
S        -22.79142       -6.03197        2.98791
C        -23.22660       -5.94735        4.61455
C        -22.20913       -5.52713        5.42992
Br       -24.94236       -6.37479        5.23187
H         -8.86742        7.85192       -4.54783
H        -12.74071        4.73663       -5.17726
H        -10.75634        9.87618       -5.39076
H         -8.48772        1.88527       -2.81815
H         -4.03351       -0.13152       -3.42982
H         -2.16173        3.14835       -0.85358
H         -6.56321        6.04554       -1.54177
H         -8.26462        3.87760       -0.17542
H         -8.30695        6.75597        0.61078
H        -10.72920        7.57599        1.39533
H        -13.12631        6.74186        1.40655
H        -15.07125        5.28719        1.40850
H        -16.60236        3.27058        1.32463
H        -16.57821        0.81167        0.55396
H        -13.47487        0.24781       -4.58237
H        -13.54657       -4.08657       -3.21374
H        -16.84195       -1.60350        1.05659
H        -14.08344       -2.90991        1.51615
H        -15.19189       -2.74831        3.83886
H        -19.55807       -4.56048        6.18854
H        -20.39993       -5.41545        1.31712
H        -22.30476       -5.41826        6.50340
