123

C         -8.02847       -2.01887       -3.23697
C         -6.89412       -2.71754       -3.02155
C         -6.65025       -3.98020       -3.63924
N         -6.46049       -5.00738       -4.14194
C         -5.82894       -2.22437       -2.22043
N         -4.95579       -1.81554       -1.55876
C         -9.14267       -2.36597       -4.16892
C         -9.85600       -1.19920       -4.45510
C        -10.97962       -1.15236       -5.27064
C        -11.45075       -2.37230       -5.80253
C        -10.75461       -3.55440       -5.50272
C         -9.58967       -3.57299       -4.69168
S        -11.52102       -4.92466       -6.22574
C        -12.74262       -3.97092       -6.89344
C        -12.60388       -2.63742       -6.61795
Br       -14.15564       -4.67294       -7.90290
C         -9.32760       -0.06430       -3.68435
O         -9.65794        1.09282       -3.82592
C         -8.33540       -0.66597       -2.73170
C         -8.01912       -0.13016       -1.54307
C         -8.53573        1.14049       -1.03909
C         -7.83915        2.32838       -1.29986
C         -8.34021        3.51681       -0.79021
C         -9.51268        3.50561        0.00049
C        -10.21569        2.33544        0.24543
C         -9.72059        1.14486       -0.27962
C         -9.78931        4.84267        0.45716
C         -8.80417        5.71443       -0.04564
C         -7.78495        4.95382       -0.92002
C         -6.35416        5.03666       -0.32342
C         -5.76366        6.44052       -0.19264
C         -7.90258        5.50194       -2.37232
C         -6.97330        4.91271       -3.42723
C         -8.88511        7.07879        0.19045
C         -9.95060        7.56832        0.94390
C        -10.91423        6.68869        1.47425
C        -10.83489        5.31518        1.23381
C        -10.17279        9.00794        0.98179
C         -9.72341        9.87549        1.90455
C        -10.14795       11.30112        1.90219
C         -9.45176       12.41672        2.49900
N         -8.23291       12.65687        3.17587
C         -7.12496       11.72799        3.37025
C         -6.03202       11.93285        2.32893
C         -8.11797       14.00252        3.59156
C         -9.24884       14.64730        3.09067
C        -10.05576       13.69025        2.41726
C        -11.28455       13.88347        1.74304
C        -11.96652       12.82376        1.19078
C        -11.41998       11.56561        1.30656
C         -9.43263       16.03625        3.28771
C         -8.49391       16.78084        3.98649
C         -7.36849       16.15200        4.48821
C         -7.14794       14.76944        4.30803
C         -5.87566       14.25818        4.83132
C         -5.72777       13.79719        6.08389
C         -4.42615       13.52081        6.66216
C         -3.96905       12.33940        7.10455
C         -2.65878       12.14014        7.68022
C         -2.35637       10.85292        7.90543
C         -3.40533        9.92851        7.50791
S         -4.84039       10.83459        7.00572
C         -3.31080        8.58505        7.45740
C         -2.15460        7.77953        7.81094
C         -2.28952        6.47570        7.52381
C         -3.55771        6.14729        6.91343
S         -4.59964        7.54547        6.85573
C         -3.88822        4.93241        6.45074
C         -5.11649        4.58905        5.76882
C         -5.64066        5.16180        4.51629
C         -6.80957        4.58189        4.17909
C         -7.06997        3.60935        5.20855
C         -5.98507        3.64492        6.18264
N         -6.09027        2.77959        7.22763
C         -7.18350        1.95114        7.30863
N         -8.17082        1.87586        6.46264
C         -8.08461        2.74817        5.38430
H        -11.49991       -0.21407       -5.44407
H         -9.11886       -4.52509       -4.47244
H        -13.29372       -1.87423       -6.95841
H         -7.41043       -0.65071       -0.81001
H         -6.92814        2.30944       -1.88726
H        -11.12703        2.33654        0.83402
H        -10.26036        0.22054       -0.08603
H         -5.66808        4.43855       -0.93563
H         -6.33687        4.57828        0.67520
H         -5.89742        7.03458       -1.10065
H         -4.69050        6.38519        0.01261
H         -6.21051        6.97994        0.64859
H         -7.72321        6.58499       -2.37048
H         -8.93463        5.38054       -2.72863
H         -5.92707        5.16464       -3.23197
H         -7.23081        5.32998       -4.40790
H         -7.06765        3.82940       -3.51228
H         -8.17110        7.76733       -0.24780
H        -11.76013        7.07746        2.03631
H        -11.59890        4.64707        1.61806
H        -10.79296        9.31826        0.14551
H         -9.11650        9.52522        2.73584
H         -7.48544       10.70176        3.38277
H         -6.72339       11.89927        4.37197
H         -6.38454       11.63124        1.33916
H         -5.13724       11.35197        2.57475
H         -5.72832       12.98348        2.25738
H        -11.71086       14.87937        1.67295
H        -12.91797       12.97164        0.68891
H        -12.03228       10.75772        0.90726
H        -10.31437       16.52797        2.88616
H         -8.64168       17.84723        4.12976
H         -6.63356       16.75444        5.02012
H         -5.01432       14.41703        4.18678
H         -6.58964       13.67111        6.73628
H         -3.77357       14.39175        6.73200
H         -1.98384       12.95873        7.89195
H         -1.40729       10.53413        8.31236
H         -1.25688        8.19113        8.24958
H         -1.51954        5.73680        7.70311
H         -3.18383        4.10998        6.55295
H         -5.14278        5.94491        3.96415
H         -7.42986        4.79658        3.32451
H         -5.38676        2.80869        7.94964
H         -7.16790        1.30291        8.20017
H         -8.90219        2.70085        4.67159
