115

C         -1.90019        4.97486       -0.95810
C         -0.80012        4.57090       -0.27282
C          0.45015        5.24516       -0.35719
N          1.46840        5.80175       -0.42319
C         -0.80219        3.39382        0.53684
N         -0.83591        2.43247        1.18789
C         -1.98913        6.09965       -1.94005
C         -3.15519        5.93389       -2.69411
C         -3.60080        6.82448       -3.66295
C         -2.82315        7.97857       -3.89092
C         -1.63943        8.15007       -3.15568
C         -1.20390        7.22149       -2.17297
S         -0.84006        9.61525       -3.60627
C         -2.05147       10.01330       -4.71180
C         -3.05486        9.08493       -4.77730
Br        -2.02472       11.57513       -5.74508
C         -3.88877        4.74171       -2.26114
O         -4.80877        4.22686       -2.85925
C         -3.22294        4.30714       -0.98804
C         -3.87655        3.64815       -0.01483
C         -5.24029        3.29158       -0.12007
S         -6.53838        4.29980        0.41054
C         -7.78848        3.16271       -0.05714
C         -7.14662        2.06759       -0.53698
C         -5.76710        2.14213       -0.58581
N         -5.09163        1.06880       -1.09043
C         -6.14029        0.20166       -1.35411
N         -5.84700       -1.10878       -1.84411
O         -4.65146       -1.37906       -2.01906
O         -6.80615       -1.86425       -2.03158
C         -7.39761        0.76968       -1.06669
C         -9.21482        3.48289        0.11283
C        -10.15493        2.46380        0.35502
C        -11.50572        2.79344        0.43973
C        -11.93710        4.12992        0.30580
C        -11.02836        5.14639        0.09696
C         -9.67418        4.81684       -0.00502
C        -13.37752        4.18495        0.38554
C        -13.87780        2.88276        0.56183
C        -12.72113        1.87890        0.65835
C        -12.83619        0.78220       -0.43826
C        -12.82501        1.28989       -1.88192
C        -12.68771        1.22257        2.07004
C        -12.49995        2.18897        3.24363
C        -15.24416        2.64494        0.61441
C        -16.13192        3.72819        0.50254
C        -15.61604        5.03061        0.34031
C        -14.23728        5.26491        0.28755
C        -17.59257        3.53293        0.48433
C        -18.20420        2.52654        1.12738
C        -19.63686        2.30174        1.11287
C        -20.27848        1.28930        1.71977
C        -21.71158        1.11375        1.71414
C        -22.13543        0.07491        2.45016
C        -21.06580       -0.65933        3.10585
S        -19.50629        0.02042        2.63470
C        -21.19446       -1.67909        3.97808
C        -22.42892       -2.27997        4.45038
C        -22.25671       -3.19853        5.41438
C        -20.87313       -3.39857        5.78667
S        -19.82037       -2.44957        4.76877
C        -20.45662       -4.16075        6.81135
C        -19.08450       -4.30625        7.24821
C        -18.66203       -3.96595        8.49096
C        -17.22654       -4.11818        8.49856
C        -16.31482       -3.81777        9.44253
C        -14.92576       -4.01534        9.07368
C        -13.78338       -3.75099        9.73798
C        -12.62105       -4.10592        8.89809
C        -13.07608       -4.60535        7.72537
C        -14.51202       -4.55542        7.77137
C        -15.42193       -4.87655        6.83592
C        -16.80432       -4.63174        7.18879
C        -17.92310       -4.75272        6.45901
C        -11.22778       -3.93240        9.24523
C        -10.18752       -4.23932        8.45791
H         -4.53489        6.65009       -4.19098
H         -0.29692        7.43776       -1.62025
H         -3.92186        9.17473       -5.42127
H         -3.42400        3.46208        0.95362
H         -4.09530        0.94716       -1.22647
H         -8.35378        0.28320       -1.21042
H         -9.84471        1.43045        0.47235
H        -11.35142        6.17595       -0.00855
H         -8.97762        5.62806       -0.20365
H        -13.76101        0.20721       -0.29296
H        -12.01252        0.06490       -0.32985
H        -13.68072        1.93911       -2.09044
H        -12.87704        0.44461       -2.57636
H        -11.90852        1.84147       -2.11065
H        -11.87549        0.48552        2.11444
H        -13.61840        0.66455        2.24097
H        -11.54127        2.71331        3.18376
H        -12.50896        1.63793        4.18975
H        -13.29932        2.93465        3.29069
H        -15.60672        1.62763        0.72108
H        -16.28932        5.88108        0.25390
H        -13.85806        6.27315        0.16215
H        -18.16443        4.25821       -0.08896
H        -17.60814        1.83108        1.71299
H        -20.22304        3.03742        0.56647
H        -22.37114        1.77971        1.17502
H        -23.18000       -0.17711        2.56156
H        -23.40270       -2.00017        4.07442
H        -23.06828       -3.72787        5.89483
H        -21.18881       -4.67923        7.42560
H        -19.25222       -3.57017        9.30039
H        -16.57535       -3.41071       10.40990
H        -13.70245       -3.32429       10.72556
H        -12.50291       -4.95201        6.88269
H        -15.15691       -5.25618        5.85844
H        -17.98475       -5.07409        5.43075
H        -11.02987       -3.50493       10.22650
H        -10.31305       -4.66000        7.46591
H         -9.16890       -4.07120        8.78960
