101

C         -7.60261       -2.66741       -4.41828
C         -8.73294       -2.45935       -5.13782
C         -9.70226       -3.48326       -5.35883
N        -10.49289       -4.31712       -5.55092
C         -9.07617       -1.17728       -5.65692
N         -9.34571       -0.13233       -6.08406
C         -7.21731       -3.93194       -3.71948
C         -6.27690       -3.61654       -2.73583
C         -5.64408       -4.55320       -1.92912
C         -5.98187       -5.91099       -2.11643
C         -6.93951       -6.24029       -3.08918
C         -7.56469       -5.26535       -3.90984
S         -7.21372       -7.94699       -3.13390
C         -6.07449       -8.22792       -1.92085
C         -5.47499       -7.08596       -1.46274
Br        -5.67003       -9.93649       -1.26808
C         -6.00248       -2.17473       -2.73374
O         -5.47535       -1.55104       -1.83586
C         -6.59443       -1.65462       -4.00987
C         -6.13297       -0.58240       -4.68014
C         -5.01852        0.22119       -4.29585
O         -4.98513        1.59900       -4.55123
C         -3.79707       -0.05994       -3.73421
C         -2.97430       -1.14327       -3.27629
O         -3.14905       -2.33978       -3.43623
N         -1.86243       -0.52509       -2.73876
C         -1.83084        0.83850       -2.93973
O         -0.92372        1.61146       -2.69108
C         -3.08491        1.12697       -3.56119
C         -3.78786        2.16415       -4.10686
C         -3.40669        3.52073       -4.26802
C         -4.22794        4.42131       -4.83204
C         -3.84230        5.77659       -5.08396
C         -4.05126        6.73355       -4.11582
S         -3.47707        8.25504       -4.59625
C         -2.93990        7.65368       -6.10497
C         -3.20639        6.30356       -6.28530
C         -2.82920        5.72614       -7.54674
C         -3.26305        4.30279       -7.88338
C         -4.74649        4.24714       -8.24175
C         -2.09219        6.51938       -8.52905
C         -1.55795        5.83812       -9.78469
C         -0.15007        5.28912       -9.56391
C         -1.83837        7.91670       -8.28806
C         -1.19054        8.98240       -9.05446
C         -1.23159       10.19808       -8.39755
S         -2.00389       10.10688       -6.89588
C         -2.29957        8.43655       -7.08117
C         -0.54326        8.87487      -10.33640
C         -0.47587        9.86074      -11.24426
C          0.22926        9.76982      -12.50978
C          0.69502       10.83040      -13.18809
C          1.31957       10.79419      -14.48946
C          1.54173       12.01115      -15.01371
C          1.10634       13.09968      -14.15786
S          0.63881       12.46286      -12.58318
C          0.94154       14.39392      -14.48578
C          1.11644       15.01857      -15.78064
C          0.49964       16.20977      -15.88102
C         -0.18372       16.61798      -14.66265
S          0.28771       15.56748      -13.35967
C         -1.10250       17.59934      -14.59768
C         -1.89693       17.97460      -13.45883
C         -3.19771       18.46650      -13.47810
C         -3.73299       18.70361      -12.17976
S         -5.35691       19.31619      -11.92039
C         -6.04282       17.99673      -10.89440
C         -2.83385       18.41284      -11.18650
S         -1.31932       17.97900      -11.82912
H         -4.88973       -4.24562       -1.21044
H         -8.26670       -5.59419       -4.66810
H         -4.71125       -7.07004       -0.69433
H         -6.58681       -0.27576       -5.61498
H         -1.07614       -1.03640       -2.37809
H         -2.40292        3.81261       -3.96673
H         -5.23378        4.13510       -5.13095
H         -4.50342        6.60929       -3.14097
H         -3.04640        3.64294       -7.04084
H         -2.68868        3.85730       -8.69597
H         -5.38317        4.60869       -7.42862
H         -5.04558        3.21757       -8.46121
H         -4.96784        4.86330       -9.11955
H         -1.56531        6.53373      -10.62597
H         -2.22053        5.04679      -10.13993
H          0.56655        6.08662       -9.33802
H          0.20214        4.77133      -10.46200
H         -0.11875        4.57995       -8.72992
H         -0.83129       11.14983       -8.72114
H         -0.02647        7.95000      -10.56167
H         -0.97394       10.80665      -11.03637
H          0.34757        8.77342      -12.92762
H          1.55311        9.86740      -14.99413
H          1.97874       12.17049      -15.98857
H          1.64190       14.54524      -16.59772
H          0.47401       16.79817      -16.78812
H         -1.35462       18.11276      -15.52336
H         -3.75408       18.61991      -14.39516
H         -7.11307       18.17059      -10.75618
H         -5.56538       17.97694       -9.91075
H         -5.90767       17.02814      -11.38304
H         -2.96593       18.47507      -10.11541
