96

C         -4.02100       -1.89346        1.17059
C         -4.69806       -3.06114        1.32203
C         -4.03941       -4.32666        1.38099
N         -3.50678       -5.35670        1.42669
C         -6.10624       -3.10352        1.48830
N         -7.26378       -3.14052        1.62389
C         -2.53262       -1.72931        1.14157
C         -2.23865       -0.39344        1.41883
C         -0.95488        0.13956        1.43336
C          0.11817       -0.72607        1.13165
C         -0.16038       -2.07536        0.86295
C         -1.48164       -2.59900        0.86121
S          1.29440       -2.95302        0.53718
C          2.24612       -1.57007        0.71313
C          1.52388       -0.44927        1.02217
Br         4.10760       -1.56947        0.50211
C         -3.47064        0.38049        1.62006
O         -3.52915        1.47670        2.13480
C         -4.58550       -0.51655        1.16486
C         -5.73709       -0.06376        0.62953
C         -5.98202        1.32543        0.36721
S         -6.84800        2.28116        1.50273
C         -6.64791        3.72104        0.58715
C         -5.85415        3.48078       -0.53370
C         -5.63118        2.07276       -0.75716
O         -4.94418        1.45076       -1.75842
C         -5.47718        1.64315       -3.06670
O         -5.29778        4.57872       -1.11813
C         -5.14499        4.58656       -2.51691
C         -7.13334        4.97430        1.10143
C         -7.73535        5.91222        0.34605
C         -7.89668        7.29785        0.74233
C         -7.99207        8.13095       -0.31073
C         -7.97645        7.43909       -1.59340
S         -8.28376        5.72334       -1.30456
C         -7.65614        7.94012       -2.80443
C         -7.22040        9.28951       -3.11211
C         -6.69072        9.42109       -4.34134
C         -6.64290        8.17992       -5.10057
S         -7.57508        6.95912       -4.27024
C         -5.94957        8.02879       -6.24718
C         -5.67569        6.80907       -6.96943
S         -5.29236        5.35046       -6.14475
C         -4.85336        4.49232       -7.56104
C         -4.96734        5.32282       -8.67326
C         -5.52070        6.62086       -8.34289
O         -5.75964        7.66956       -9.17816
C         -6.53909        7.36029      -10.32922
O         -4.60679        4.81227       -9.88262
C         -4.02332        5.68963      -10.82773
C         -4.37009        3.15258       -7.37045
C         -4.42429        2.14170       -8.25585
C         -4.96845        2.02597       -9.60558
C         -6.18710        2.42534      -10.03148
C         -6.61342        2.30093      -11.38164
N         -6.93785        2.23660      -12.49664
C         -7.16179        2.95718       -9.14101
N         -7.99091        3.34510       -8.42747
C         -4.10291        1.06051      -10.32440
C         -3.41911        0.29906       -9.37070
C         -3.58531        0.91268       -8.03147
O         -3.09919        0.51968       -6.98866
C         -2.71260       -0.85428       -9.69435
C         -2.68799       -1.24858      -11.05877
C         -3.26903       -0.40204      -12.01641
C         -3.95540        0.78022      -11.67263
S         -3.06663       -1.01307      -13.61609
C         -2.34798       -2.42611      -13.04515
C         -2.17260       -2.43853      -11.68543
Br        -1.84970       -3.83304      -14.17596
H         -0.79754        1.19613        1.63394
H         -1.62208       -3.64478        0.61279
H          1.96059        0.53226        1.16394
H         -6.47383       -0.74356        0.21580
H         -4.78687        2.27463       -3.63266
H         -6.49150        2.05813       -3.08849
H         -5.49714        0.68609       -3.59718
H         -5.07655        5.63122       -2.83481
H         -6.00305        4.16182       -3.04322
H         -4.19891        4.11569       -2.79060
H         -6.85856        5.21232        2.12598
H         -7.84494        7.62322        1.77223
H         -8.03775        9.20673       -0.22015
H         -7.27221       10.10078       -2.39886
H         -6.27760       10.34834       -4.71642
H         -5.46950        8.91052       -6.66840
H         -6.00340        7.75426      -11.20043
H         -7.49859        7.88112      -10.27879
H         -6.73621        6.29356      -10.47836
H         -3.26802        5.12033      -11.37872
H         -4.77202        5.97051      -11.57191
H         -3.54334        6.56556      -10.38611
H         -3.85968        2.96089       -6.42399
H         -2.24003       -1.45438       -8.92150
H         -4.39063        1.39073      -12.45465
H         -1.72470       -3.26490      -11.14719
