118

C        -14.41875        0.17955       -5.37062
C        -15.04542       -0.89815       -4.85679
C        -16.46455       -1.05738       -4.92954
N        -17.61129       -1.18383       -5.00584
C        -14.33069       -2.00266       -4.29105
N        -13.74784       -2.90330       -3.83653
C        -15.02494        1.32897       -6.10630
C        -14.01509        1.91587       -6.88683
C        -14.18362        3.08135       -7.62116
C        -15.43646        3.72954       -7.54884
C        -16.46463        3.13542       -6.79736
C        -16.27598        1.92098       -6.07219
S        -17.90712        4.09046       -6.87159
C        -17.14971        5.28685       -7.79174
C        -15.85127        4.98898       -8.10481
Br       -17.99618        6.87241       -8.32229
C        -12.73085        1.22331       -6.68355
O        -11.71210        1.36194       -7.32309
C        -12.95504        0.34893       -5.49814
C        -11.96652        0.07959       -4.62946
N        -10.61634        0.39631       -4.68664
C         -9.68139        0.18325       -3.70389
S         -9.84755       -1.11702       -2.56470
C         -8.51058       -0.61919       -1.67116
N         -8.15811       -1.27565       -0.44170
O         -7.20202       -0.79255        0.18019
O         -8.82619       -2.25246       -0.08432
C         -7.85923        0.44396       -2.23859
C         -8.50344        0.89031       -3.43937
C         -8.03059        2.00027       -4.22154
C         -6.96515        2.76931       -3.92402
C         -6.53596        3.91216       -4.74201
C         -5.16922        4.23385       -4.80963
C         -4.77050        5.29618       -5.60998
C         -5.73752        6.05868       -6.30422
C         -7.08475        5.76122       -6.22987
C         -7.47940        4.68961       -5.43915
C         -5.08738        7.10144       -7.05319
C         -3.69374        6.99514       -6.87880
C         -3.35583        5.74498       -6.02458
C         -2.44318        6.18679       -4.84107
C         -1.91485        5.12255       -3.88150
C         -2.69711        4.66090       -6.93057
C         -3.57702        4.11216       -8.06648
C         -2.84602        7.94951       -7.42809
C         -3.41109        9.01181       -8.14950
C         -4.79968        9.06998       -8.37155
C         -5.64640        8.10862       -7.82296
C         -2.56253       10.09141       -8.64997
C         -2.03155       10.05394       -9.87724
C         -1.24521       11.14132      -10.41794
C         -1.48498       11.73544      -11.59523
C         -0.67018       12.77681      -12.17011
C         -1.07326       13.15902      -13.38997
C         -2.23649       12.43585      -13.87864
S         -2.83944       11.35397      -12.62773
C         -2.74945       12.49638      -15.12064
C         -2.24827       13.30507      -16.21473
C         -2.79125       13.00372      -17.40237
C         -3.76538       11.93761      -17.33505
S         -4.08359       11.48732      -15.68219
C         -4.30139       11.34019      -18.41026
C         -5.24451       10.24092      -18.36808
C         -5.09661        9.00222      -18.86166
C         -4.03761        8.28973      -19.59282
C         -3.32362        8.72915      -20.65788
C         -2.38938        7.91250      -21.35898
N         -1.62207        7.25595      -21.93075
C         -3.54054       10.00195      -21.25706
N         -3.71013       11.02258      -21.78542
C         -4.12315        6.85975      -19.16239
C         -5.34940        6.66989      -18.51820
C         -6.04866        7.95514      -18.35251
O         -7.14769        8.11268      -17.86359
C         -5.80632        5.43561      -18.06868
C         -4.97540        4.31083      -18.27832
C         -3.72085        4.50352      -18.87767
C         -3.26606        5.77518      -19.30802
S         -2.85922        3.01183      -19.01500
C         -4.13529        2.13935      -18.33934
C         -5.19561        2.92349      -17.97048
Br        -4.09844        0.27956      -18.11870
H        -13.35233        3.51199       -8.17170
H        -17.10645        1.53939       -5.47847
H        -15.20520        5.63911       -8.68342
H        -12.23029       -0.38186       -3.68149
H        -10.35414        0.91105       -5.53289
H         -6.97451        0.89051       -1.79663
H         -8.58709        2.22208       -5.12828
H         -6.34630        2.58438       -3.05167
H         -4.44016        3.62783       -4.28416
H         -7.82218        6.32847       -6.78534
H         -8.54056        4.46430       -5.37930
H         -2.96769        6.94353       -4.24299
H         -1.55275        6.69002       -5.24315
H         -2.69723        4.48361       -3.47452
H         -1.43814        5.61375       -3.02359
H         -1.15326        4.49330       -4.35205
H         -2.38893        3.80122       -6.32318
H         -1.78447        5.06987       -7.38188
H         -4.34602        3.43370       -7.68027
H         -2.96940        3.53945       -8.77402
H         -4.07506        4.90224       -8.63590
H         -1.77219        7.89424       -7.28357
H         -5.23061        9.88013       -8.95669
H         -6.71788        8.16981       -7.98011
H         -2.44136       10.94733       -7.99283
H         -2.21743        9.20644      -10.53552
H         -0.39792       11.45861       -9.81456
H          0.19774       13.18204      -11.66824
H         -0.55565       13.90900      -13.97014
H         -1.48128       14.05728      -16.09420
H         -2.50744       13.47977      -18.33161
H         -4.03062       11.72409      -19.38522
H         -6.11462       10.44003      -17.73474
H         -6.77303        5.34552      -17.58038
H         -2.27702        5.85479      -19.74501
H         -6.09955        2.53901      -17.51337
