102

C         -6.81180       -2.23013       -6.15084
C         -7.81610       -3.03063       -5.70046
C         -8.40717       -4.04087       -6.51807
N         -8.88504       -4.86383       -7.18198
C         -8.30856       -2.96453       -4.36446
N         -8.71159       -2.89672       -3.28417
C         -6.13574       -2.30313       -7.48144
C         -4.90015       -1.66351       -7.37640
C         -4.00401       -1.50988       -8.43075
C         -4.38871       -2.01722       -9.69008
C         -5.63044       -2.66145       -9.81113
C         -6.52426       -2.81238       -8.71729
S         -5.88762       -3.20766      -11.43193
C         -4.40882       -2.57910      -11.94890
C         -3.70189       -1.96347      -10.95170
Br        -3.79713       -2.70862      -13.71494
C         -4.71147       -1.10474       -6.03089
O         -3.67462       -0.64962       -5.59644
C         -6.04441       -1.24758       -5.35287
C         -6.43791       -0.44436       -4.35235
C         -5.59152        0.54149       -3.78187
O         -5.51169        1.85559       -4.24895
C         -4.72251        0.46779       -2.72864
C         -4.17902       -0.44296       -1.77034
O         -4.40431       -1.63378       -1.65857
N         -3.32447        0.33562       -1.01173
C         -3.24999        1.65178       -1.42018
O         -2.58166        2.55081       -0.94439
C         -4.15097        1.72079       -2.52594
C         -4.59984        2.58678       -3.48416
C         -4.22306        3.93585       -3.69982
C         -4.36726        4.53636       -4.89434
C         -3.90798        5.87018       -5.18578
C         -4.01218        6.85092       -4.21845
S         -3.36115        8.32972       -4.71306
C         -2.90621        7.69524       -6.23243
C         -3.27155        6.36423       -6.41328
C         -2.94576        5.78284       -7.69135
C         -3.46861        4.40013       -8.06554
C         -2.62635        3.24612       -7.53385
C         -2.14614        6.53147       -8.67470
C         -1.71705        5.85342       -9.97920
C         -0.71760        4.71491       -9.83247
C         -1.80656        7.90988       -8.42204
C         -1.09471        8.94492       -9.17327
C         -1.06487       10.16204       -8.52670
S         -1.83257       10.10091       -7.01911
C         -2.22837        8.44700       -7.20998
C         -0.45483        8.82667      -10.45099
C         -1.06605        9.10492      -11.61423
C         -0.45412        8.92695      -12.92312
C         -1.06037        9.14570      -14.10243
C         -0.50199        8.84062      -15.40212
C         -1.40359        8.88434      -16.39846
C         -2.74047        9.24070      -15.95514
S         -2.67708        9.77278      -14.27320
C         -3.90206        9.08700      -16.61916
C         -4.11822        8.47710      -17.91709
C         -5.38767        8.07164      -18.10801
C         -6.25868        8.34720      -16.97766
S         -5.46009        9.46915      -15.90185
C         -7.46990        7.79280      -16.76977
C         -8.26285        7.97191      -15.59910
N         -7.67363        8.18470      -14.34867
C         -8.70459        8.34137      -13.41483
C         -9.85524        8.17337      -14.11617
C         -9.60617        7.93614      -15.45617
N        -10.65894        7.76431      -16.28949
C        -11.72059        7.91345      -15.38732
C        -11.26789        8.16450      -14.06845
H         -3.06469       -0.98511       -8.28872
H         -7.48232       -3.29182       -8.89018
H         -2.73711       -1.49177      -11.09707
H         -7.45085       -0.46717       -3.96037
H         -2.77522       -0.03054       -0.25352
H         -3.73476        4.44900       -2.87499
H         -4.81842        3.96646       -5.69874
H         -4.43586        6.76889       -3.22647
H         -3.58877        4.31455       -9.14993
H         -4.49975        4.29818       -7.71150
H         -1.55266        3.41694       -7.63042
H         -2.88405        2.32613       -8.06974
H         -2.78436        3.07004       -6.47088
H         -1.23573        6.56724      -10.64016
H         -2.59989        5.52921      -10.53915
H          0.10293        4.97119       -9.15458
H         -0.29909        4.43703      -10.80401
H         -1.19895        3.80786       -9.48336
H         -0.62346       11.08948       -8.86674
H          0.57638        8.48323      -10.44226
H         -2.10454        9.43164      -11.57971
H          0.55772        8.52611      -12.92426
H          0.53443        8.56369      -15.53951
H         -1.16821        8.65208      -17.42749
H         -3.32483        8.31831      -18.63351
H         -5.72924        7.55285      -18.99330
H         -7.86778        7.12044      -17.52681
H         -6.68193        8.29286      -14.17056
H         -8.48024        8.56748      -12.38259
H        -10.65630        7.59693      -17.28630
H        -12.73459        7.84128      -15.75794
H        -11.89856        8.32967      -13.20534
