105

C        -16.21953      -11.42067        2.47852
C        -15.25483      -11.76660        3.37126
C        -14.58591      -13.02351        3.33535
N        -14.04454      -14.05171        3.31543
C        -14.87774      -10.92699        4.45683
N        -14.55494      -10.25767        5.35170
C        -16.76057      -12.29324        1.38845
C        -17.97303      -11.75021        0.95719
C        -18.75303      -12.28303       -0.06236
C        -18.25562      -13.41302       -0.74298
C        -17.02681      -13.95662       -0.33865
C        -16.26900      -13.42068        0.73538
S        -16.59133      -15.30283       -1.33235
C        -17.97556      -15.13215       -2.28322
C        -18.79747      -14.11906       -1.86997
Br       -18.34265      -16.21272       -3.76848
C        -18.25067      -10.47821        1.63076
O        -19.24603       -9.80699        1.45243
C        -17.04404      -10.19155        2.48208
C        -16.74906       -8.95881        2.92633
C        -17.57248       -7.76367        2.79673
C        -17.11888       -6.50056        2.75992
C        -17.95036       -5.33227        2.58142
C        -17.25632       -4.19788        2.39696
C        -15.81529       -4.38970        2.40164
S        -15.43707       -6.05752        2.83249
C        -14.87226       -3.50461        2.02721
C        -15.08115       -2.16257        1.51320
C        -14.02901       -1.69679        0.81942
C        -12.93046       -2.63995        0.75584
S        -13.15765       -3.91653        1.91331
C        -11.93685       -2.59722       -0.14349
C        -10.90358       -3.62722       -0.34325
C         -9.68661       -3.57850        0.35384
C         -8.69862       -4.50957        0.03808
C         -8.92586       -5.49459       -0.94647
C        -10.14309       -5.58034       -1.60181
C        -11.13190       -4.64084       -1.29756
C         -7.72053       -6.26666       -1.13690
C         -6.71625       -5.79599       -0.26668
C         -7.25894       -4.63925        0.58841
C         -6.44066       -3.33901        0.37232
C         -6.39910       -2.81228       -1.06317
C         -7.34357       -5.02846        2.09286
C         -6.02374       -5.33958        2.79492
C         -5.43068       -6.33149       -0.30456
C         -5.15672       -7.37472       -1.19733
C         -6.16790       -7.81269       -2.07942
C         -7.45319       -7.27053       -2.04817
C         -3.80558       -7.95442       -1.24958
C         -3.60477       -9.23449       -1.59395
C         -2.30673       -9.77235       -1.76123
S         -1.56233       -9.65804       -3.30937
C         -0.24793      -10.62570       -2.82379
C         -0.38138      -11.05629       -1.52199
C         -1.51196      -10.46871       -0.86817
O         -1.89289      -10.58333        0.43642
C         -1.03205      -10.83367        1.48782
C          0.30276      -10.38655        1.56391
C          1.18330      -10.78393        2.63257
N          2.49854      -10.52400        2.58786
C          2.97974       -9.87844        1.48599
C          2.13596       -9.40138        0.51569
N          0.80235       -9.60944        0.58108
C          2.60169       -8.78928       -0.70054
N          2.98156       -8.34408       -1.69709
C          4.40338       -9.83780        1.35186
N          5.55489       -9.82631        1.18710
C          0.74159      -11.49367        3.73992
C         -0.61077      -11.88553        3.75670
C         -1.51784      -11.56581        2.60638
N         -2.75716      -12.05708        2.77969
S         -2.77672      -12.81909        4.25446
N         -1.20770      -12.57521        4.73857
H        -19.68210      -11.80340       -0.35649
H        -15.31410      -13.87476        0.97335
H        -19.72999      -13.85854       -2.35650
H        -15.78388       -8.77529        3.39213
H        -18.64532       -7.91953        2.70337
H        -19.03081       -5.38801        2.57121
H        -17.72650       -3.24034        2.22300
H        -16.00980       -1.61991        1.62264
H        -14.01455       -0.74512        0.30595
H        -11.90857       -1.79950       -0.88062
H         -9.51043       -2.81349        1.10273
H        -10.32391       -6.34046       -2.35453
H        -12.08225       -4.69294       -1.82527
H         -5.40161       -3.49530        0.68633
H         -6.84086       -2.54296        1.01286
H         -5.95232       -3.53792       -1.74943
H         -5.78992       -1.90323       -1.10520
H         -7.39608       -2.55449       -1.43161
H         -7.99821       -5.90219        2.21880
H         -7.82574       -4.21103        2.64551
H         -5.60289       -6.28968        2.45422
H         -6.19008       -5.44042        3.87267
H         -5.27980       -4.55230        2.65003
H         -4.65219       -5.94612        0.34653
H         -5.95860       -8.57730       -2.82406
H         -8.20561       -7.62179       -2.74449
H         -2.97372       -7.29615       -1.01240
H         -4.43081       -9.90627       -1.80851
H          0.54881      -10.84270       -3.52249
H          0.34553      -11.70571       -1.05531
H          1.41189      -11.76057        4.55038
