113

C        -12.85422        1.41382        0.72325
C        -13.92008        0.60339        0.54678
C        -14.95077        0.47295        1.51728
N        -15.78783        0.37979        2.31803
C        -14.10496       -0.14356       -0.65889
N        -14.24024       -0.75182       -1.63373
C        -12.54224        2.28282        1.89971
C        -11.56379        3.20658        1.50772
C        -10.82286        3.98009        2.38701
C        -11.05096        3.77850        3.76433
C        -12.09594        2.92901        4.16518
C        -12.88192        2.18764        3.24357
S        -12.21930        2.88235        5.88989
C        -10.82209        3.81082        6.07806
C        -10.29707        4.24809        4.89268
Br       -10.05400        4.18908        7.74358
C        -11.21370        3.02215        0.09448
O        -10.54040        3.74930       -0.60660
C        -11.78409        1.69012       -0.24723
C        -11.06568        0.85430       -1.01551
N         -9.88202        1.12890       -1.67873
C         -9.02660        0.26362       -2.30621
S         -9.05407       -1.45008       -2.03821
C         -7.75502       -1.72150       -3.07788
N         -7.21351       -3.03262       -3.28402
O         -6.28248       -3.12189       -4.09807
O         -7.68813       -3.97447       -2.63282
C         -7.30377       -0.56739       -3.67008
C         -8.00623        0.58373       -3.20268
C         -7.70001        1.92226       -3.63016
C         -6.71894        2.22846       -4.49445
C         -6.39364        3.58269       -4.93140
C         -5.04752        3.86920       -5.19756
C         -4.73047        5.12477       -5.67445
C         -5.74036        6.08448       -5.89476
C         -7.06821        5.80894       -5.64316
C         -7.39550        4.54409       -5.16633
C         -5.14292        7.28597       -6.41394
C         -3.74861        7.09708       -6.52082
C         -3.36236        5.69314       -6.05914
C         -2.38854        5.76441       -4.84944
C         -2.92082        6.48365       -3.60769
C         -2.70698        4.88450       -7.21642
C         -3.58009        4.65442       -8.45214
C         -2.92812        8.10808       -6.98380
C         -3.53076        9.31644       -7.34844
C         -4.92641        9.48406       -7.26647
C         -5.74297        8.46696       -6.78593
C         -2.68095       10.37542       -7.87704
C         -2.92903       11.67291       -7.65124
C         -2.12515       12.76456       -8.20022
C         -2.76832       13.95521       -8.54641
C         -2.04174       15.02943       -9.06616
N         -2.81918       16.15822       -9.34379
C         -4.08166       15.93545       -9.07000
S         -4.44684       14.39065       -8.46043
C         -0.64533       14.87514       -9.24910
C         -0.01164       13.65728       -8.92793
C         -0.73916       12.60348       -8.36902
N          0.01427       11.48182       -8.01937
C          1.26350       11.64146       -8.36467
S          1.63083       13.11194       -9.12602
C          0.12443       16.01287       -9.78244
C          1.40605       16.31079       -9.44771
C          1.77599       17.49017      -10.17732
C          2.94611       18.14818      -10.22227
C          2.95783       19.35019      -11.02463
C          3.93156       20.24885      -11.25017
C          3.40918       21.34876      -12.08198
C          2.12437       21.07384      -12.40976
C          1.77951       19.83895      -11.75948
C          0.62051       19.15797      -11.73836
C          0.61736       17.94991      -10.94312
C         -0.35467       17.05687      -10.71305
C          4.14861       22.49797      -12.53458
C          3.60422       23.69271      -12.80128
H        -10.00551        4.60006        2.02795
H        -13.62153        1.49175        3.62512
H         -9.39397        4.84180        4.81175
H        -11.36358       -0.18507       -1.10622
H         -9.62414        2.12103       -1.63840
H         -6.49461       -0.56642       -4.39323
H         -8.30732        2.73323       -3.22803
H         -6.07527        1.46645       -4.91835
H         -4.27003        3.12962       -5.04472
H         -7.84522        6.54601       -5.82232
H         -8.44540        4.31054       -4.99859
H         -1.46426        6.27146       -5.15763
H         -2.09392        4.75099       -4.54799
H         -3.29092        7.48719       -3.83719
H         -2.12014        6.59276       -2.86857
H         -3.72821        5.91664       -3.13470
H         -2.39087        3.89971       -6.84757
H         -1.79195        5.39580       -7.54216
H         -4.35527        3.90641       -8.25567
H         -2.96659        4.27633       -9.27710
H         -4.06511        5.57125       -8.79882
H         -1.85432        7.96989       -7.04891
H         -5.39418       10.41215       -7.58961
H         -6.81632        8.60600       -6.72492
H         -1.82872       10.04062       -8.46133
H         -3.78683       11.96614       -7.05315
H         -4.84839       16.68150       -9.22539
H          2.01018       10.87900       -8.18554
H          2.06256       15.81345       -8.75603
H          3.82593       17.83229       -9.67757
H          4.93617       20.21512      -10.85884
H          1.46075       21.65497      -13.02728
H         -0.27200       19.48309      -12.25433
H         -1.35665       17.10089      -11.11110
H          5.22476       22.37090      -12.63031
H          2.54096       23.87915      -12.68606
H          4.22283       24.52467      -13.12357
