85

C         -6.11125        5.48915        2.09359
C         -5.68071        4.96898        3.26791
C         -5.62247        5.72210        4.47521
N         -5.58647        6.31618        5.46524
C         -5.23548        3.62110        3.42089
N         -4.88522        2.52362        3.56300
C         -6.50481        6.92056        1.84849
C         -6.70565        7.09633        0.48127
C         -7.10236        8.28403       -0.12591
C         -7.37031        9.38188        0.70972
C         -7.18272        9.23119        2.09122
C         -6.73490        8.01415        2.67794
S         -7.58763       10.69073        2.92535
C         -8.02879       11.46662        1.49185
C         -7.86555       10.68763        0.37928
Br        -8.68545       13.21948        1.43078
C         -6.60084        5.83131       -0.23275
O         -6.98871        5.71295       -1.37589
C         -6.19648        4.79388        0.78106
C         -6.07502        3.49118        0.47108
C         -6.03051        2.90910       -0.86921
N         -6.45385        1.64181       -0.99059
C         -6.34357        1.11516       -2.22364
C         -5.83816        1.80476       -3.30348
C         -5.42655        3.09708       -3.06145
N         -5.45471        3.63359       -1.83448
C         -4.96360        3.95955       -4.15764
C         -5.12896        5.29415       -4.16528
C         -4.76451        6.13183       -5.26607
S         -4.22311        7.73426       -4.90726
C         -4.05675        8.14028       -6.55144
C         -4.38719        7.10209       -7.39766
C         -4.34918        7.19706       -8.88833
C         -4.80957        5.94702       -6.64588
C         -5.32268        4.75615       -7.25819
C         -4.55869        3.76105       -7.73585
C         -5.08491        2.54326       -8.31291
C         -5.95046        1.73791       -7.67865
C         -6.42759        0.47585       -8.22246
C         -7.25584       -0.38376       -7.60531
C         -7.69645       -1.65206       -8.14196
C         -8.47674       -2.35743       -7.30466
C         -8.70633       -1.70423       -6.02437
S         -7.92845       -0.12226       -6.02201
C         -9.36220       -2.18361       -4.94804
C        -10.05253       -3.45303       -4.82021
C        -10.46127       -3.72332       -3.56910
C        -10.09806       -2.70550       -2.60097
S         -9.43636       -1.31231       -3.40678
C        -10.21474       -2.84437       -1.26983
C         -9.75589       -1.89272       -0.32473
S        -10.73630       -0.66111        0.40402
C         -9.46448       -0.11485        1.46727
C         -8.37194       -0.86460        1.21307
C         -8.53261       -1.83472        0.24737
O         -7.45796       -2.63877       -0.00308
C         -6.56342       -2.08098        0.89078
N         -5.27644       -2.69020        0.90358
O         -4.31060       -1.94786        0.68902
O         -5.23282       -3.89807        1.16799
C         -7.04665       -1.01338        1.65189
H         -7.25152        8.33324       -1.20201
H         -6.63299        7.97716        3.75511
H         -8.10138       11.00877       -0.62881
H         -5.96070        2.71701        1.21629
H         -6.69399        0.09241       -2.32860
H         -5.79780        1.35728       -4.28519
H         -4.50510        3.44064       -4.98767
H         -5.57744        5.78543       -3.30510
H         -3.73407        9.13592       -6.82521
H         -3.90801        8.14423       -9.21633
H         -5.36199        7.13544       -9.29922
H         -3.74790        6.38616       -9.31127
H         -6.40696        4.67766       -7.30635
H         -3.47337        3.84058       -7.70043
H         -4.68669        2.27774       -9.28815
H         -6.30258        2.02565       -6.68975
H         -6.05192        0.21864       -9.21061
H         -7.40203       -1.99537       -9.12526
H         -8.86924       -3.33472       -7.55052
H        -10.21992       -4.12139       -5.65411
H        -10.98411       -4.62907       -3.29124
H        -10.63301       -3.76074       -0.86412
H         -9.62046        0.68343        2.17970
H         -6.50256       -0.46276        2.40738
