95

C         -3.90484        0.85969       -7.69103
C         -3.13581        1.85289       -7.18390
C         -2.11952        2.50492       -7.93771
N         -1.28974        3.04180       -8.55310
C         -3.21683        2.27893       -5.82538
N         -3.26953        2.61878       -4.71866
C         -3.76457        0.22993       -9.04275
C         -4.44251       -0.99314       -9.03328
C         -4.43264       -1.90132      -10.08456
C         -3.68981       -1.55981      -11.23488
C         -3.07023       -0.30154      -11.28765
C         -3.11689        0.62057      -10.20984
S         -2.26185       -0.07291      -12.79863
C         -2.65130       -1.63164      -13.31543
C         -3.42869       -2.32134      -12.42460
Br        -2.07138       -2.34738      -14.94617
C         -5.17021       -1.17489       -7.77208
O         -5.85855       -2.12857       -7.46725
C         -4.90751        0.05701       -6.96571
C         -5.63749        0.30282       -5.86848
N         -6.62201       -0.48733       -5.31339
C         -7.54004       -0.19688       -4.34918
S         -8.38317       -1.51711       -3.61961
C         -9.32774       -0.47609       -2.68787
N        -10.40404       -0.99940       -1.90945
O        -10.51377       -0.56263       -0.75694
O        -11.17356       -1.79235       -2.46673
C         -8.98091        0.84553       -2.80994
C         -8.00996        1.01797       -3.84913
C         -7.67714        2.29090       -4.41820
C         -7.67485        3.48271       -3.80061
C         -7.38523        4.65242       -4.56597
O         -6.55817        4.58081       -5.67837
C         -6.54844        5.77880       -6.29571
C         -7.34349        6.65922       -5.61118
N         -7.55162        8.00171       -6.03038
O         -7.86822        8.16631       -7.21200
O         -7.39290        8.88147       -5.17989
C         -7.85861        5.97262       -4.47517
N         -8.73389        6.51037       -3.57314
C         -8.92759        6.17976       -2.24789
C         -9.83442        6.64674       -1.37720
C         -9.91577        6.21648       -0.00737
C        -10.96018        6.72929        0.65450
C        -11.79546        7.61136       -0.14654
S        -11.07727        7.81587       -1.75203
C        -12.96048        8.15534        0.25997
C        -13.61322        7.88462        1.53022
C        -14.79400        8.49603        1.68515
C        -15.12915        9.37781        0.59184
S        -13.94200        9.27212       -0.68857
C        -16.14084       10.25851        0.65532
C        -16.36962       11.33641       -0.28076
C        -16.58625       12.62214        0.03657
C        -16.96663       13.57847       -1.06103
O        -16.87629       13.41850       -2.26030
C        -17.54798       14.75032       -0.38237
C        -18.10234       15.86480       -0.99178
C        -18.71932       16.82643       -0.17884
C        -18.80117       16.60794        1.22759
C        -19.47753       17.54451        2.02556
C        -20.03333       18.68053        1.44882
C        -19.92766       18.91921        0.08636
C        -19.27409       17.99336       -0.72833
F        -20.67971       19.55939        2.22554
C        -18.20439       15.47575        1.80880
C        -17.52409       14.56813        1.00598
C        -16.69157       13.36539        1.30380
C        -15.95179       13.22390        2.43208
C        -14.89635       12.27907        2.58008
N        -14.01105       11.55669        2.78040
C        -16.07979       14.09942        3.55238
N        -16.19449       14.80113        4.46790
H         -4.95779       -2.84942      -10.00564
H         -2.62888        1.58130      -10.32822
H         -3.78363       -3.33207      -12.58749
H         -5.49415        1.21721       -5.30717
H         -6.66848       -1.42772       -5.72765
H         -9.49231        1.64649       -2.28840
H         -7.46057        2.27473       -5.48553
H         -7.91702        3.56439       -2.75063
H         -5.94946        5.84708       -7.19231
H         -9.24154        7.36882       -3.80820
H         -8.20242        5.46068       -1.88275
H         -9.19887        5.53901        0.43943
H        -11.15433        6.50881        1.69364
H        -13.19237        7.24615        2.29302
H        -15.39267        8.41672        2.58213
H        -16.79265       10.24207        1.52740
H        -16.37763       11.04161       -1.33351
H        -18.05840       15.97157       -2.07288
H        -19.57510       17.40621        3.09866
H        -20.36016       19.82176       -0.33415
H        -19.20162       18.19230       -1.79568
H        -18.28739       15.33372        2.88228
