96

C         -0.89360        1.16832       -0.07059
C         -0.54293        0.08139        0.65732
C          0.76111       -0.09118        1.20682
N          1.81803       -0.23486        1.65293
C         -1.46185       -0.95422        0.99112
N         -2.20193       -1.80649        1.26293
C         -0.03442        2.36049       -0.35733
C         -0.86031        3.40933       -0.76584
C         -0.40997        4.67724       -1.11629
C          0.97927        4.91407       -1.06036
C          1.82375        3.86711       -0.65942
C          1.33755        2.57932       -0.31199
S          3.47702        4.37166       -0.65972
C          3.07099        5.92454       -1.18088
C          1.72664        6.10229       -1.36682
Br         4.33935        7.27032       -1.47773
C         -2.26145        2.98543       -0.77882
O         -3.20048        3.75295       -0.79343
C         -2.24000        1.49171       -0.59573
C         -3.23301        0.67268       -0.98566
C         -4.44856        1.06448       -1.69764
N         -5.55092        0.33349       -1.47868
C         -6.64671        0.70836       -2.16501
C         -6.66912        1.76350       -3.04674
C         -5.47538        2.43008       -3.20658
N         -4.34655        2.05361       -2.58744
C         -5.38199        3.61003       -4.06726
C         -4.47431        4.58287       -3.87068
C         -4.35278        5.76677       -4.72659
C         -3.89780        6.98126       -4.17609
C         -3.73952        8.13293       -4.96729
C         -4.03641        8.03275       -6.33176
C         -4.46736        6.82302       -6.83523
C         -4.63339        5.66688       -6.09628
O         -4.68921        6.96999       -8.16512
C         -4.37674        8.28554       -8.42006
N         -3.97567        8.95075       -7.34455
C         -4.46310        8.86903       -9.73337
S         -4.99053        7.93604      -11.06314
C         -4.78523        9.22710      -12.18116
C         -4.30463       10.36105      -11.53539
C         -4.16308       10.16587      -10.11099
C         -3.69567       11.26656       -9.19275
C         -3.81162       12.66339       -9.81681
C         -5.22325       13.23675       -9.70350
F         -6.10061       12.38675       -9.13326
F         -5.19707       14.35347       -8.93388
F         -5.73310       13.60681      -10.89820
C         -3.27366       12.65453      -11.25080
C         -4.01683       11.69125      -12.17234
C         -5.14308        8.98044      -13.54092
C         -4.53382        9.58984      -14.56711
C         -4.87387        9.39079      -15.94890
C         -4.79083        8.25388      -16.64216
C         -4.38573        6.87906      -16.31717
C         -3.36298        6.48657      -15.51567
C         -3.05125        5.11680      -15.26600
N         -2.80789        4.00553      -15.05152
C         -2.42098        7.40882      -14.97111
N         -1.59868        8.13012      -14.57757
C         -5.09500        6.00210      -17.29744
C         -5.61445        6.81701      -18.31124
C         -5.43719        8.23648      -17.98664
O         -5.79236        9.17998      -18.66116
C         -6.20899        6.34102      -19.47017
C         -6.27222        4.94245      -19.63654
C         -5.80612        4.11549      -18.60233
C         -5.24013        4.62619      -17.40740
S         -5.99492        2.44725      -19.01012
C         -6.61443        2.82508      -20.53325
C         -6.74181        4.17004      -20.75141
Br        -7.07747        1.52798      -21.80160
H         -1.10912        5.44692       -1.43142
H          2.05202        1.81330       -0.03516
H          1.27990        7.03007       -1.70407
H         -3.18755       -0.40181       -0.85901
H         -7.54163        0.12538       -1.96742
H         -7.57633        2.05984       -3.55482
H         -6.11096        3.66934       -4.86745
H         -3.78295        4.53269       -3.03291
H         -3.66859        7.04724       -3.11256
H         -3.39927        9.07039       -4.54142
H         -4.95137        4.74857       -6.57104
H         -2.64090       11.06964       -8.95846
H         -4.24044       11.24903       -8.24304
H         -3.15474       13.32418       -9.23611
H         -2.21597       12.35731      -11.22304
H         -3.29824       13.66073      -11.68443
H         -3.36933       11.57087      -13.04055
H         -4.95950       12.12567      -12.52257
H         -5.93720        8.26117      -13.73386
H         -3.72574       10.29685      -14.43462
H         -5.25008       10.29361      -16.43722
H         -6.57186        7.02786      -20.22990
H         -4.90613        3.92865      -16.64832
H         -7.12668        4.60200      -21.66741
