79

C         -3.03899        0.32517       -2.63870
C         -2.86084       -1.01509       -2.56001
C         -2.20978       -1.76683       -3.57788
N         -1.68178       -2.37851       -4.41514
C         -3.26433       -1.76100       -1.41391
N         -3.61238       -2.35799       -0.48489
C         -2.55376        1.22093       -3.72960
C         -2.49899        2.52359       -3.22745
C         -2.16894        3.63844       -3.98605
C         -1.90347        3.43865       -5.35796
C         -1.94336        2.13200       -5.87140
C         -2.26292        1.00374       -5.07167
S         -1.58046        2.12145       -7.56187
C         -1.41875        3.80067       -7.60471
C         -1.61553        4.39732       -6.38880
Br        -1.01671        4.75422       -9.16584
C         -2.97525        2.56523       -1.83818
O         -2.87672        3.50889       -1.08506
C         -3.59099        1.21980       -1.59410
C         -4.62568        1.02744       -0.75707
C         -5.18595        2.07344        0.04024
C         -6.19533        3.00089       -0.23091
C         -6.90363        3.17343       -1.46975
O         -8.06524        3.52568       -1.59968
O         -6.17400        2.93213       -2.58517
C         -6.31629        3.77407        0.95656
N         -5.47189        3.33869        1.89372
O         -4.78893        2.28471        1.33697
C         -7.19201        4.96651        1.18918
O         -8.32045        5.29654        0.45598
C         -7.02585        5.95811        2.11110
C         -6.15219        6.41796        3.14637
O         -5.13179        5.91288        3.57490
N         -6.70646        7.61852        3.54459
C         -7.84292        7.97875        2.85226
O         -8.51143        8.98542        3.00000
C         -8.03745        6.91013        1.91950
C         -8.86353        6.50850        0.89936
C        -10.03635        7.07273        0.32200
C        -10.24765        8.39695        0.24656
C        -11.45044        8.96722       -0.33594
C        -11.50218        9.77502       -1.40711
C        -12.72460       10.27618       -1.99822
C        -12.55864       10.76626       -3.23485
C        -11.18884       10.67194       -3.71090
S        -10.12355       10.26874       -2.35519
C        -10.78136       10.69518       -4.99446
C        -11.61900       10.77380       -6.17927
C        -11.03604       10.24254       -7.26868
C         -9.70411        9.72396       -7.00272
S         -9.12627       10.37217       -5.48868
C         -9.07014        8.83452       -7.78649
C         -7.85060        8.16342       -7.48743
S         -7.33458        7.56331       -5.93228
C         -5.89320        6.82345       -6.54780
C         -5.88756        7.00676       -7.88259
C         -6.94386        7.72966       -8.39130
O         -6.96650        7.91709       -9.74273
C         -5.80262        7.24452      -10.07662
N         -5.47500        7.23126      -11.47232
O         -4.46361        6.58771      -11.78750
O         -6.20855        7.85471      -12.24582
C         -5.11611        6.66807       -9.00119
H         -2.17237        4.63000       -3.54154
H         -2.31595        0.02704       -5.54096
H         -1.56184        5.46690       -6.22360
H         -5.13768        0.07347       -0.69481
H         -6.80398        3.19957       -3.28907
H         -6.28723        8.19986        4.24954
H        -10.75421        6.37654       -0.10400
H         -9.51331        9.11630        0.60352
H        -12.37919        8.66326        0.14221
H        -13.67996       10.22047       -1.49422
H        -13.36862       11.14862       -3.84004
H        -12.63117       11.15269       -6.16875
H        -11.52426       10.14477       -8.22914
H         -9.54733        8.54766       -8.72248
H         -5.20148        6.30792       -5.89709
H         -4.20255        6.09326       -9.05626
