127

C         -0.37783        1.56538       -1.29992
C          0.48806        1.66108       -2.33811
C          1.68830        0.89733       -2.41376
N          2.66850        0.28100       -2.47066
C          0.22792        2.49941       -3.47031
N          0.01851        3.19200       -4.37254
C         -0.28026        0.64347       -0.13316
C         -1.54984        0.53046        0.44701
C         -1.81586       -0.20235        1.59727
C         -0.72605       -0.83513        2.23632
C          0.55091       -0.72753        1.66255
C          0.79627        0.00393        0.47238
S          1.72905       -1.56893        2.60736
C          0.57895       -2.02122        3.75602
C         -0.68447       -1.58361        3.46260
Br         0.99504       -3.01734        5.28673
C         -2.51386        1.40499       -0.24096
O         -3.71039        1.45363       -0.04423
C         -1.68676        2.23675       -1.17579
C         -2.04387        3.47383       -1.55715
C         -3.30593        4.14183       -1.20204
C         -4.47139        4.08143       -1.96420
C         -5.65687        4.84754       -1.63240
N         -6.70900        4.76432       -2.47322
C         -6.62197        3.98835       -3.58989
C         -5.52498        3.20444       -3.83664
N         -4.43430        3.26338       -3.03826
C         -5.47564        2.22574       -4.89056
N         -5.45956        1.42340       -5.72357
C         -7.73916        4.05155       -4.48499
N         -8.62293        4.08759       -5.23361
C         -5.75702        5.65256       -0.46030
C         -4.58558        5.65346        0.38069
C         -3.33675        4.92244       -0.02430
N         -2.30386        5.10837        0.81969
S         -2.86170        6.04328        2.06028
N         -4.41685        6.26119        1.57108
C         -7.00353        6.38424       -0.03730
S         -7.33508        6.50259        1.66867
C         -8.83526        7.29018        1.49335
C         -9.18332        7.23685        0.15872
C         -8.03305        7.05357       -0.70638
C         -8.13216        7.55057       -2.08617
O         -7.35888        7.30443       -3.00366
C         -9.25433        8.52287       -2.32299
C         -9.14803        9.52178       -3.29656
C        -10.22899       10.38249       -3.53599
C        -11.43369       10.23925       -2.82942
C        -12.61979       11.12536       -3.11486
C        -13.52331       10.54721       -4.19327
C        -11.52966        9.25202       -1.84576
C        -10.43050        8.43532       -1.56979
C        -10.48466        7.55230       -0.39460
O        -11.54474        7.16104        0.07149
C         -9.49708        7.92872        2.66259
C        -10.35948        9.02906        2.48623
C        -10.87887        9.70526        3.59047
C        -10.54253        9.30350        4.89333
C         -9.69932        8.22868        5.09902
C         -9.18914        7.54739        3.98682
C        -11.16654       10.18528        5.84934
C        -11.89681       11.17810        5.16260
C        -11.79535       10.94285        3.63428
C        -11.18607       12.16498        2.89776
C         -9.76110       12.55963        3.27751
C        -13.20560       10.59519        3.06313
C        -13.28225       10.32751        1.55728
C        -12.55779       12.17770        5.87392
C        -12.48314       12.18636        7.28194
C        -11.78051       11.16051        7.94586
C        -11.11390       10.16254        7.23310
C        -13.16557       13.26064        8.02302
C        -12.78839       13.70701        9.23304
C        -13.45995       14.79064        9.90618
C        -14.73495       14.83576       10.31590
C        -15.87311       13.90160       10.28533
C        -15.84208       12.54674       10.39148
C        -17.00954       11.73341       10.32599
N        -17.95069       11.05759       10.25737
C        -14.66909       11.81651       10.68585
N        -13.74042       11.15958       10.99423
C        -17.10794       14.74394       10.39422
C        -16.72155       16.05187       10.70579
C        -15.26048       16.18076       10.70787
O        -14.63522       17.19535       10.93973
C        -17.60690       17.08584       10.98685
C        -18.98503       16.78417       10.98803
C        -19.38894       15.48373       10.65128
C        -18.46703       14.45615       10.32422
S        -21.10915       15.33086       10.71860
C        -21.29533       16.93181       11.21800
C        -20.11258       17.61539       11.30561
Br       -22.95865       17.69419       11.61745
H         -2.81775       -0.23391        2.01739
H          1.81391        0.08032        0.10523
H         -1.54839       -1.76871        4.08950
H         -1.36100        4.12642       -2.09350
H         -8.22618        9.64437       -3.86167
H        -10.13051       11.16214       -4.29024
H        -12.27260       12.12145       -3.41164
H        -13.19794       11.26757       -2.19285
H        -12.98798       10.43288       -5.14160
H        -14.37714       11.21106       -4.36299
H        -13.91223        9.56413       -3.90584
H        -12.44940        9.13109       -1.27469
H        -10.60804        9.38792        1.49613
H         -9.41419        7.92112        6.09945
H         -8.51444        6.71776        4.18019
H        -11.83275       13.04096        3.04183
H        -11.16855       11.96976        1.82015
H         -9.69133       12.89324        4.31563
H         -9.43289       13.38753        2.63856
H         -9.05584       11.73789        3.12203
H        -13.89694       11.42051        3.27672
H        -13.61208        9.71557        3.58009
H        -12.95960       11.18887        0.96625
H        -14.31207       10.10256        1.26534
H        -12.68997        9.46160        1.26086
H        -13.10375       12.95564        5.34844
H        -11.73298       11.12319        9.03281
H        -10.56508        9.39257        7.76546
H        -14.00170       13.73100        7.51171
H        -11.91749       13.30380        9.74956
H        -12.82885       15.67597       10.03086
H        -17.23989       18.07949       11.22932
H        -18.85953       13.47945       10.06828
H        -20.03491       18.65411       11.60374
