106

C          0.09156        6.76957       -7.29508
C          1.09293        6.85698       -6.38347
C          2.45068        6.56815       -6.68970
N          3.56677        6.33808       -6.92438
C          0.89786        7.24614       -5.02189
N          0.76386        7.56570       -3.91900
C          0.24283        6.35448       -8.73498
C         -1.01458        6.36856       -9.33648
C         -1.26475        6.06228      -10.67128
C         -0.17327        5.68211      -11.47105
C          1.09987        5.63836      -10.88446
C          1.32695        5.97808       -9.52122
S          2.28727        5.12553      -12.03149
C          1.13585        4.97713      -13.25735
C         -0.13090        5.30333      -12.85534
Br         1.55009        4.41706      -14.99573
C         -2.05432        6.73466       -8.38225
O         -3.23376        6.74431       -8.66693
C         -1.35983        7.04410       -7.08266
C         -2.02267        7.50850       -6.00786
C         -3.44625        7.75192       -5.90581
C         -4.04185        8.24075       -4.80799
C         -5.44564        8.46230       -4.77778
O         -6.00282        9.47666       -4.02768
C         -7.37524        9.48421       -4.17405
C         -7.68891        8.44751       -5.04077
C         -6.49635        7.81479       -5.40411
O         -6.39456        6.75629       -6.22740
O         -8.90499        8.08927       -5.49817
C         -8.17332       10.45060       -3.50755
C         -9.42251       10.18002       -3.11032
C        -10.25527       11.14223       -2.44102
C        -11.50957       10.85177       -2.07251
C        -12.34444       11.79203       -1.37637
C        -12.01449       12.29685       -0.17818
C        -12.87828       13.21394        0.46464
O        -13.71472       14.07137       -0.21291
C        -14.43490       14.83905        0.67636
C        -14.05441       14.43571        1.94724
C        -13.06562       13.45336        1.80943
O        -12.41960       12.81411        2.80356
O        -14.52068       14.90727        3.11911
C        -15.37007       15.82319        0.25337
C        -15.20745       16.43436       -0.92809
C        -16.10984       17.44620       -1.42839
C        -15.91522       18.04441       -2.61146
C        -16.77255       19.09155       -3.13296
C        -16.57719       19.75860       -4.28070
C        -17.37313       20.87977       -4.72474
C        -16.80082       21.57504       -5.72000
C        -15.50633       21.04865       -6.11798
S        -15.26646       19.46309       -5.39184
C        -14.55114       21.69624       -6.80943
C        -14.61404       23.05654       -7.30804
C        -13.41846       23.55692       -7.65532
C        -12.33111       22.61924       -7.48322
S        -12.94254       21.03755       -7.07576
C        -11.02982       22.93661       -7.56087
C         -9.91337       22.04438       -7.32190
C         -9.69916       20.91155       -8.00739
C         -8.61336       20.06065       -7.67632
O         -7.45482       20.49540       -7.06946
C         -6.58735       19.43774       -6.87362
C         -7.22745       18.30811       -7.36352
C         -8.47838       18.69898       -7.86244
O         -9.41094       17.89710       -8.40734
O         -6.75513       17.04657       -7.37063
C         -5.30533       19.58807       -6.27320
C         -4.86370       20.79581       -5.89235
C         -3.56213       20.99077       -5.30484
C         -2.68348       21.86742       -5.80266
H         -2.27605        6.10964      -11.06973
H          2.34305        5.91879       -9.15131
H         -1.00032        5.27040      -13.50167
H         -1.50343        7.75052       -5.08821
H         -4.06670        7.53415       -6.77065
H         -3.47592        8.51463       -3.92364
H         -7.29021        6.53135       -6.54128
H         -9.57718        8.73644       -5.22792
H         -7.71078       11.41057       -3.29490
H         -9.85559        9.19350       -3.24844
H         -9.83797       12.12748       -2.23714
H        -11.96295        9.88956       -2.29833
H        -13.29026       12.04144       -1.85368
H        -11.10540       11.99960        0.33485
H        -12.75206       13.16342        3.65164
H        -15.21445       15.57046        2.96465
H        -16.20384       16.06800        0.89928
H        -14.34846       16.18688       -1.55599
H        -16.95825       17.71975       -0.80649
H        -15.05066       17.75785       -3.20976
H        -17.60623       19.38376       -2.49820
H        -18.30863       21.15285       -4.25766
H        -17.23006       22.47138       -6.14294
H        -15.52864       23.62967       -7.34717
H        -13.26355       24.56930       -8.00076
H        -10.74129       23.96842       -7.74763
H         -9.23736       22.34151       -6.52162
H        -10.37394       20.58862       -8.79487
H         -9.08335       16.97967       -8.36500
H         -5.86201       17.01392       -6.98962
H         -4.67217       18.71617       -6.15461
H         -5.47266       21.68819       -6.03188
H         -3.30586       20.39391       -4.43260
H         -2.90459       22.45797       -6.68710
H         -1.70678       21.99368       -5.34738
