84

C        -13.00861        7.84623        1.25054
C        -12.92936        7.79795        2.60492
C        -13.54790        8.75979        3.45388
N        -14.04770        9.53879        4.15421
C        -12.23349        6.78029        3.31502
N        -11.65351        5.96405        3.91102
C        -13.72721        8.88047        0.43381
C        -13.70904        8.49113       -0.90940
C        -14.25205        9.24008       -1.94994
C        -14.83123       10.48814       -1.62966
C        -14.85352       10.89168       -0.28716
C        -14.31389       10.09974        0.75900
S        -15.59071       12.44561       -0.11421
C        -15.83965       12.58279       -1.77671
C        -15.41055       11.49027       -2.48097
Br       -16.61829       14.08742       -2.57535
C        -12.96700        7.23523       -1.07708
O        -12.77495        6.64649       -2.12295
C        -12.45422        6.87304        0.28221
C        -11.57736        5.86736        0.41564
N        -11.03620        5.04733       -0.55867
C        -10.14392        4.02669       -0.38066
S        -10.09247        3.10436        1.08585
C         -8.83040        2.15112        0.52115
N         -8.31192        1.12826        1.36548
O         -8.32038       -0.02138        0.90888
O         -7.87274        1.47840        2.46753
C         -8.41800        2.46914       -0.74465
C         -9.18472        3.55994       -1.28199
C         -8.94996        4.15746       -2.56970
C         -7.99413        3.78200       -3.43762
C         -7.73470        4.45711       -4.67594
C         -6.57181        5.00939       -5.03721
C         -6.70408        5.70369       -6.28158
C         -7.94995        5.61613       -6.77094
C         -8.70045        4.77309       -5.77577
S        -10.29306        4.23797       -5.84503
C         -8.41888        6.25827       -7.94095
S        -10.04979        6.78861       -8.17471
C         -9.74576        7.60636       -9.68855
C         -8.46139        7.31094      -10.00458
C         -7.74384        6.58186       -9.07017
N         -6.45263        6.26810       -9.39330
C         -6.33200        6.86058      -10.63965
N         -5.08869        6.73012      -11.33418
O         -4.21312        6.05967      -10.76998
O         -4.99693        7.28622      -12.43236
C         -7.51066        7.51720      -11.04302
C        -10.77957        8.29326      -10.39246
C        -11.72011        9.05649       -9.81049
C        -11.94173        9.47927       -8.42305
C        -11.02495       10.03075       -7.58960
C        -11.34088       10.45602       -6.26832
N        -11.60605       10.78216       -5.18662
C         -9.69914       10.33234       -8.02586
N         -8.63621       10.62544       -8.38420
C        -13.41123        9.56306       -8.23646
C        -13.99696        9.65211       -9.50382
C        -12.98785        9.37296      -10.55356
O        -13.17573        9.34455      -11.75097
C        -15.34000        9.95286       -9.69584
C        -16.13493       10.17488       -8.54291
C        -15.56247        9.97176       -7.27662
C        -14.20392        9.62778       -7.10005
S        -16.71443       10.23110       -6.01847
C        -17.89575       10.72091       -7.11528
C        -17.49781       10.62076       -8.42208
Br       -19.58138       11.34170       -6.58685
H        -14.19405        8.88951       -2.97658
H        -14.35072       10.49716        1.76557
H        -15.48270       11.40435       -3.55645
H        -11.14913        5.64065        1.38299
H        -11.31404        5.31493       -1.51009
H         -7.59999        1.96239       -1.24209
H         -9.58286        5.00189       -2.84448
H         -7.32107        2.96050       -3.21501
H         -5.66421        5.01369       -4.44801
H         -5.87321        6.25533       -6.69661
H         -5.76632        5.73005       -8.88009
H         -7.64284        8.05835      -11.97147
H        -10.84608        8.09398      -11.46175
H        -15.75055       10.05708      -10.69655
H        -13.81478        9.47694       -6.09924
H        -18.12816       10.88139       -9.26342
