87

C        -11.18322        0.70654       -3.45142
C        -11.15555       -0.63837       -3.28519
C        -11.98381       -1.52409       -4.03154
N        -12.65544       -2.24722       -4.64414
C        -10.24372       -1.28099       -2.39867
N         -9.51174       -1.81057       -1.66933
C        -12.01163        1.45395       -4.45081
C        -11.46575        2.72530       -4.59352
C        -11.98148        3.73590       -5.39550
C        -13.15380        3.45079       -6.11525
C        -13.71550        2.16967       -6.00542
C        -13.15931        1.15389       -5.17782
S        -15.13617        2.04468       -6.98361
C        -15.02551        3.65879       -7.46898
C        -13.92963        4.30381       -6.96668
Br       -16.28461        4.49128       -8.57727
C        -10.30685        2.90446       -3.73281
O         -9.59920        3.88221       -3.83052
C        -10.26702        1.70286       -2.82852
C         -9.67127        1.69324       -1.61938
C         -8.84270        2.75322       -1.03536
N         -8.88566        2.90629        0.29631
C         -8.15890        3.92832        0.79074
C         -7.43985        4.80355        0.00922
C         -7.44502        4.53557       -1.33794
N         -8.08536        3.47956       -1.85543
C         -6.76797        5.43204       -2.27902
C         -6.26169        5.03364       -3.45885
C         -5.57995        5.91076       -4.35664
S         -5.29817        7.60693       -4.00759
C         -4.45867        7.89741       -5.47656
C         -4.39219        6.74639       -6.20031
C         -5.02189        5.65430       -5.58450
C         -4.87548        4.54269       -6.45558
C         -4.17195        4.88594       -7.56275
C         -3.82842        6.36309       -7.46121
O         -3.22696        7.06222       -8.25473
C         -3.80802        4.04357       -8.67008
C         -2.72885        4.26535       -9.43988
C         -2.30877        3.42365      -10.55528
N         -1.18514        3.77758      -11.19503
C         -0.80827        2.98085      -12.20976
C         -1.50459        1.85957      -12.59524
C         -2.64457        1.58584      -11.87182
N         -3.06357        2.36120      -10.85453
C         -3.47589        0.41487      -12.17967
C         -4.59684        0.14201      -11.49315
C         -5.44346       -0.98976      -11.77007
C         -6.55814       -1.35391      -11.12108
C         -7.31668       -0.83700       -9.97111
C         -6.81873       -0.36308       -8.79876
C         -7.65235        0.06986       -7.72632
N         -8.33367        0.42464       -6.85150
C         -5.42879       -0.35851       -8.49044
N         -4.30682       -0.37329       -8.17666
C         -8.73653       -1.25233      -10.18543
C         -8.75644       -2.22396      -11.19150
C         -7.42571       -2.37266      -11.79751
O         -7.12985       -3.12960      -12.69849
C         -9.89233       -2.92772      -11.57347
C        -11.09796       -2.64192      -10.89555
C        -11.10086       -1.62835       -9.92449
C         -9.93375       -0.90350       -9.57132
S        -12.67682       -1.42327       -9.24393
C        -13.31067       -2.68051      -10.17498
C        -12.39697       -3.24233      -11.02600
Br       -15.09114       -3.24913      -10.05255
H        -11.50868        4.71334       -5.42500
H        -13.66418        0.19704       -5.12160
H        -13.68573        5.34085       -7.16835
H         -9.80748        0.87484       -0.91972
H         -8.18088        4.03891        1.87008
H         -6.89206        5.63401        0.43339
H         -6.71594        6.46442       -1.95126
H         -6.35653        3.98849       -3.75027
H         -4.06771        8.87595       -5.71871
H         -5.25348        3.55289       -6.23484
H         -4.44034        3.17743       -8.85451
H         -2.06257        5.10325       -9.25713
H          0.10297        3.28064      -12.71898
H         -1.16713        1.24147      -13.41509
H         -3.14147       -0.22552      -12.98947
H         -4.89917        0.82776      -10.70863
H         -5.16185       -1.55580      -12.66139
H         -9.84158       -3.68267      -12.35354
H        -10.01383       -0.12297       -8.82368
H        -12.62386       -4.05658      -11.70414
