84

C         -1.68146        2.02647        0.18684
C         -1.62682        1.37871        1.37366
C         -0.58272        0.46744        1.71190
N          0.28270       -0.25086        1.99315
C         -2.61439        1.56438        2.38383
N         -3.43969        1.69908        3.20421
C         -0.70944        1.91467       -0.95978
C         -1.07883        2.87198       -1.91244
C         -0.67602        2.87427       -3.23091
C          0.26248        1.90494       -3.61480
C          0.82600        1.08424       -2.62404
C          0.33584        1.05652       -1.28476
S          2.12432        0.15338       -3.29252
C          1.75231        0.64562       -4.86639
C          0.72599        1.54728       -4.92277
Br         2.64526        0.02101       -6.38955
C         -2.07604        3.78071       -1.37602
O         -2.28405        4.90341       -1.77909
C         -2.68543        3.04867       -0.23071
C         -3.99392        3.20603        0.02951
C         -4.88819        4.21937       -0.56736
C         -6.21633        4.29880       -0.40772
C         -7.11948        5.31816       -0.90228
C         -8.41967        5.09697       -0.62049
C         -8.64080        3.84614        0.06365
S         -7.07982        3.10552        0.46316
C         -9.78055        3.16923        0.29914
C        -11.15540        3.38972       -0.05404
C        -11.90887        2.27321        0.06945
C        -11.18519        1.14075        0.63671
S         -9.64410        1.63800        1.09753
C        -11.58564       -0.12470        0.80124
C        -10.94051       -1.34048        1.33689
C        -11.68891       -2.52084        1.21218
C        -13.11519       -2.83679        0.84442
F        -13.89767       -1.75463        0.60259
F        -13.20317       -3.61782       -0.26710
F        -13.73832       -3.51668        1.84719
S        -10.74525       -3.89331        1.49049
C         -9.35970       -3.01256        1.93253
O         -8.32530       -3.85443        2.02665
C         -7.28673       -3.46267        2.85428
C         -9.58586       -1.62690        2.05445
N         -8.66186       -0.62464        2.49484
C         -7.96843       -0.34222        3.69893
S         -6.59390       -1.19668        4.41203
C         -6.96913       -0.60568        5.93774
N         -6.65008       -1.32060        7.12748
O         -7.37183       -1.08977        8.10624
O         -5.71402       -2.12889        7.09181
C         -7.43282        0.66799        5.78284
C         -7.77404        0.87870        4.39516
C         -8.06879        2.19855        3.96539
C         -7.16106        3.19131        3.80920
C         -7.61733        4.53156        3.63902
S         -9.23422        5.02145        4.17147
C         -9.12603        6.58683        3.47352
C         -7.87867        6.72688        3.02198
C         -7.02582        5.64813        3.14626
O         -5.72659        5.87524        2.74570
C         -5.83997        7.21005        2.36912
N         -4.65152        7.90284        2.00755
O         -4.73009        8.66851        1.03170
O         -3.67078        7.76157        2.75628
C         -7.12590        7.74937        2.45889
H         -1.13242        3.55649       -3.94540
H          0.75978        0.33376       -0.59425
H          0.31969        1.95310       -5.84205
H         -4.46891        2.50765        0.71321
H         -4.43859        4.98549       -1.18775
H         -6.76574        6.18735       -1.43796
H         -9.22786        5.76357       -0.88774
H        -11.52682        4.33710       -0.41870
H        -12.95446        2.21859       -0.20644
H        -12.56792       -0.26698        0.35814
H         -7.73841       -3.21904        3.81831
H         -6.74138       -2.66334        2.34287
H         -6.58221       -4.27044        3.04989
H         -8.97290        0.27135        2.12239
H         -7.48618        1.40675        6.57446
H         -9.13138        2.39972        3.88828
H         -6.08845        2.98302        3.81890
H         -9.96886        7.27885        3.51282
H         -7.41944        8.76311        2.22368
