99

C         -7.08495        7.75791       -0.51040
C         -6.19757        7.37351       -1.46336
C         -5.13564        8.20797       -1.93608
N         -4.28751        8.87137       -2.36578
C         -6.23312        6.08999       -2.07622
N         -6.22258        5.07089       -2.64322
C         -7.01417        9.02419        0.28825
C         -7.92920        8.92760        1.34229
C         -8.16801        9.93171        2.26960
C         -7.42664       11.12362        2.14334
C         -6.48068       11.22507        1.11268
C         -6.26415       10.18947        0.16746
S         -5.65863       12.74430        1.17396
C         -6.56623       13.25284        2.50257
C         -7.48254       12.32725        2.92221
Br        -6.33918       14.92014        3.32347
C         -8.64781        7.65153        1.30171
O         -9.40642        7.21879        2.14517
C         -8.24783        7.00996        0.01774
C         -9.05591        6.08528       -0.52354
N        -10.25162        5.57230       -0.04676
C        -11.07828        4.62477       -0.58937
S        -12.14757        3.75750        0.47313
C        -12.65889        2.73753       -0.77262
N        -13.53384        1.64703       -0.49888
O        -14.57659        1.59747       -1.16390
O        -13.14770        0.80867        0.32412
C        -12.17838        3.08538       -2.00459
C        -11.27736        4.18438       -1.89901
C        -10.70679        4.76731       -3.06803
C         -9.47147        4.49360       -3.50763
C         -8.77863        5.18677       -4.59923
C         -7.78353        4.51437       -5.32670
C         -7.29814        3.11576       -5.30300
O         -7.78336        2.23646       -4.61425
N         -6.26142        3.02312       -6.21408
C         -6.04090        4.23415       -6.81944
O         -5.24820        4.59497       -7.67455
C         -7.00070        5.17383       -6.26587
C         -7.14264        6.51097       -6.57297
C         -8.12886        7.16606       -5.86542
C         -8.91072        6.55809       -4.90136
C         -9.71875        7.63990       -4.32786
O        -10.46802        7.59982       -3.37702
O         -9.42999        8.76527       -5.02917
C         -8.47451        8.56471       -5.96546
O         -7.98557        9.36967       -6.71709
C         -5.58498        1.84127       -6.47614
C         -4.59594        1.71384       -7.37071
N         -3.86582        0.59946       -7.71844
C         -2.88809        0.49958       -8.66963
S         -1.71176       -0.75966       -8.48489
C         -0.85274       -0.23958       -9.83923
N          0.34797       -0.90866      -10.21358
O          0.37958       -1.38629      -11.35404
O          1.26893       -0.91504       -9.38755
C         -1.43826        0.80629      -10.50031
C         -2.62042        1.24858       -9.81981
C         -3.43163        2.33022      -10.30964
C         -2.94355        3.48151      -10.80886
C         -3.79829        4.57387      -11.22526
C         -3.47523        5.85247      -11.47464
C         -2.24584        6.65903      -11.43791
C         -1.04279        6.34260      -11.97922
C          0.05273        7.25788      -12.00155
N          0.94279        7.99947      -12.01896
C         -0.81425        5.12230      -12.67143
N         -0.61007        4.12943      -13.24236
C         -2.65865        8.03128      -11.00521
C         -4.04840        8.12336      -11.13235
C         -4.62095        6.82349      -11.51677
O         -5.78863        6.60147      -11.76260
C         -4.77836        9.27943      -10.88218
C         -4.06743       10.43114      -10.48395
C         -2.67636       10.34009      -10.31221
C         -1.95430        9.14036      -10.54670
S         -2.01448       11.85585       -9.80895
C         -3.52091       12.61367       -9.88458
C         -4.54106       11.76191      -10.21318
Br        -3.77037       14.44249       -9.56161
H         -8.91484        9.80085        3.04751
H         -5.53319       10.35804       -0.61374
H         -8.16325       12.47988        3.75103
H         -8.79874        5.67006       -1.47916
H        -10.47762        5.89591        0.90300
H        -12.43300        2.57387       -2.92609
H        -11.34875        5.47457       -3.58409
H         -8.88811        3.74234       -2.96883
H         -6.51690        7.00963       -7.30695
H         -5.92748        0.97977       -5.90729
H         -4.25911        2.58725       -7.91609
H         -3.94864       -0.17237       -7.05812
H         -1.04476        1.23707      -11.41517
H         -4.50993        2.20740      -10.21324
H         -1.86999        3.61446      -10.83881
H         -4.86167        4.32033      -11.24053
H         -5.85838        9.29148      -11.00214
H         -0.88233        9.13384      -10.37923
H         -5.57875       12.06382      -10.29221
