96

C         -9.95052       -2.58698        0.87822
C        -10.57731       -2.98865       -0.25643
C        -10.82352       -4.35719       -0.56232
N        -11.03156       -5.46752       -0.82257
C        -11.02596       -2.09651       -1.27402
N        -11.40659       -1.38894       -2.11295
C         -9.38126       -3.48324        1.94181
C         -8.64952       -2.70501        2.83862
C         -7.97795       -3.19471        3.95561
C         -8.04173       -4.57927        4.20081
C         -8.77498       -5.38098        3.31449
C         -9.45481       -4.85135        2.18359
S         -8.72408       -7.03970        3.79859
C         -7.76680       -6.68671        5.14280
C         -7.46376       -5.35658        5.26113
Br        -7.17981       -7.98758        6.35529
C         -8.70127       -1.29288        2.47525
O         -8.11425       -0.42754        3.09010
C         -9.60308       -1.19458        1.27243
C        -10.02280       -0.02087        0.77239
C         -9.63380        1.29501        1.22354
C        -10.09719        2.42556        0.67543
C         -9.67784        3.69200        1.15832
O        -10.49628        4.79208        1.06485
C         -9.88141        5.89448        1.61670
C         -8.62855        5.48563        2.04161
C         -8.50684        4.12029        1.76056
O         -7.42729        3.35938        2.01330
O         -7.67264        6.24196        2.61507
C        -10.50098        7.16673        1.67685
C        -11.73496        7.34940        1.18344
C        -12.42811        8.61379        1.21250
C        -11.82038        9.80016        1.06860
C        -12.47194       11.08794        1.10434
C        -13.52038       11.35506        1.90338
N        -11.82163       12.01546        0.34142
N        -12.48765       12.95791       -0.12833
C        -11.78595       13.81441       -0.93753
C        -10.48235       13.71695       -1.23731
C         -9.84800       14.62066       -2.12083
O        -10.48161       15.66769       -2.74735
C         -9.58673       16.34839       -3.54738
C         -8.37139       15.69354       -3.43722
C         -8.53345       14.63311       -2.53927
O         -7.59597       13.74781       -2.15693
O         -7.23367       15.99057       -4.09268
C         -9.94757       17.50240       -4.29152
C        -11.20818       17.65266       -4.71821
C        -11.65765       18.81657       -5.44387
C        -12.91699       18.92456       -5.88865
C        -13.39924       20.07850       -6.60859
C        -14.64623       20.30358       -7.04482
C        -15.92244       19.57823       -6.95812
C        -16.43211       18.93468       -5.87847
C        -17.70162       18.29021       -5.88850
N        -18.72708       17.74760       -5.90045
C        -15.78497       18.92112       -4.60723
N        -15.29184       18.89713       -3.55722
C        -16.68499       19.93419       -8.19524
C        -16.05013       21.02345       -8.80261
C        -14.80518       21.36015       -8.09633
O        -14.04626       22.26520       -8.37350
C        -16.51520       21.65841       -9.94789
C        -17.70916       21.17368      -10.52539
C        -18.34104       20.06649       -9.93813
C        -17.83555       19.42037       -8.78124
S        -19.77382       19.63707      -10.80393
C        -19.56014       20.89448      -11.90836
C        -18.43281       21.63604      -11.67750
Br       -20.75126       21.23775      -13.31233
H         -7.43392       -2.52194        4.61454
H        -10.01096       -5.53869        1.55878
H         -6.86208       -4.94074        6.06033
H        -10.72709        0.01846       -0.05021
H         -8.93133        1.37051        2.04805
H        -10.82940        2.41740       -0.12563
H         -6.76350        3.91324        2.46384
H         -7.95415        7.17024        2.66927
H         -9.95450        7.98888        2.12348
H        -12.30183        6.51699        0.76763
H        -13.50847        8.55319        1.32185
H        -10.74737        9.84322        0.88635
H        -13.96604       10.60244        2.53865
H        -13.93981       12.35213        1.94331
H        -12.39143       14.61409       -1.35621
H         -9.87191       12.92160       -0.82305
H         -6.76273       13.97511       -2.61037
H         -7.40298       16.66716       -4.77000
H         -9.19141       18.25434       -4.48667
H        -11.94806       16.87854       -4.51068
H        -10.94103       19.61902       -5.60491
H        -13.59194       18.08968       -5.73221
H        -12.62351       20.79575       -6.88981
H        -15.97360       22.49719      -10.37699
H        -18.36583       18.55733       -8.39548
H        -18.12866       22.47879      -12.28673
