106

C         -4.56058       -2.29179       -0.99256
C         -3.33612       -2.77742       -0.68066
C         -3.00166       -4.15360       -0.82088
N         -2.73467       -5.27763       -0.93144
C         -2.27159       -1.92454       -0.25603
N         -1.41552       -1.22712        0.09007
C         -5.71107       -3.04160       -1.57926
C         -6.56955       -2.11519       -2.18186
C         -7.79175       -2.43856       -2.75425
C         -8.19797       -3.78885       -2.69896
C         -7.33690       -4.73214       -2.11427
C         -6.08158       -4.38053       -1.55010
S         -8.02949       -6.31553       -2.16746
C         -9.43929       -5.74621       -2.90022
C         -9.42557       -4.39739       -3.13115
Br       -10.88303       -6.85227       -3.34833
C         -6.06057       -0.74793       -2.00561
O         -6.43889        0.23218       -2.60818
C         -4.97510       -0.87532       -0.98100
C         -4.71033        0.07287       -0.06689
C         -5.41611        1.35726        0.02081
C         -4.90141        2.49214       -0.61196
C         -5.60440        3.68767       -0.49735
C         -6.81763        3.75992        0.22080
C         -7.32725        2.63893        0.85366
C         -6.61843        1.43681        0.75554
C         -7.33229        5.11017        0.15202
C         -6.43769        5.90992       -0.59095
C         -5.23567        5.07658       -1.05769
C         -3.91565        5.51477       -0.35406
C         -3.46073        6.95724       -0.54437
C         -5.09031        5.04954       -2.60155
C         -6.25673        4.42368       -3.37110
C         -6.71000        7.25446       -0.82119
C         -7.87349        7.81067       -0.27806
C         -8.76335        7.00832        0.45824
C         -8.49987        5.64984        0.66943
C         -8.16195        9.23192       -0.47492
C         -7.72908       10.16965        0.38147
C         -8.02302       11.57447        0.20272
C         -7.64585       12.52278        1.07249
C         -7.99739       13.92250        0.90353
C         -8.14328       14.81855        1.89347
C         -8.55992       16.19134        1.70210
C         -8.88621       16.81737        2.84284
C         -8.77884       15.97468        4.01911
S         -7.99316       14.45195        3.58854
C         -9.26285       16.23666        5.24794
C         -9.94538       17.43461        5.69680
C        -10.45947       17.33978        6.93437
C        -10.23127       16.05502        7.56384
S         -9.22904       15.05798        6.54247
C        -10.76240       15.66648        8.73706
C        -10.64153       14.36813        9.38080
C         -9.54952       13.56475        9.34690
C         -9.87935       12.36233       10.05465
C         -9.17185       11.23015       10.19806
C         -9.80624       10.18771       10.96986
C         -9.37606        8.95392       11.28618
C        -10.38672        8.27409       12.11272
C        -11.42409        9.11961       12.31935
C        -11.12823       10.33497       11.59819
C        -11.83711       11.46984       11.44249
C        -11.21806       12.50425       10.63216
C        -11.65608       13.71295       10.23856
C        -10.29520        6.96667       12.71483
C         -9.62723        5.93886       12.17569
H         -8.42900       -1.66475       -3.17371
H         -5.48283       -5.15102       -1.07739
H        -10.24687       -3.85194       -3.58130
H         -4.03062       -0.09850        0.76229
H         -3.98102        2.44298       -1.18452
H         -8.25266        2.68432        1.41809
H         -7.01503        0.55596        1.25589
H         -3.09862        4.86525       -0.69667
H         -3.99744        5.34284        0.72850
H         -3.37871        7.22932       -1.59948
H         -2.47499        7.09315       -0.08549
H         -4.13072        7.66128       -0.04335
H         -4.18414        4.49212       -2.87245
H         -4.95008        6.06906       -2.98056
H         -6.39808        3.36970       -3.11200
H         -6.05425        4.46362       -4.44699
H         -7.19622        4.95375       -3.19048
H         -6.02983        7.86881       -1.40246
H         -9.67254        7.44220        0.86932
H         -9.20301        5.04097        1.22715
H         -8.75218        9.47792       -1.35185
H         -7.14779        9.88277        1.25925
H         -8.62138       11.84425       -0.66546
H         -7.07936       12.24961        1.96122
H         -8.19909       14.23737       -0.11738
H         -8.63043       16.64363        0.72477
H         -9.25360       17.83244        2.87626
H        -10.04188       18.31922        5.08406
H        -11.01476       18.13214        7.41739
H        -11.41890       16.35810        9.26204
H         -8.60410       13.72807        8.85892
H         -8.19350       11.08416        9.76034
H         -8.43175        8.51572       11.00410
H        -12.31269        8.93964       12.90049
H        -12.81480       11.62252       11.87837
H        -12.61040       14.15607       10.47673
H        -10.81025        6.82518       13.66224
H         -9.11694        6.01903       11.22090
H         -9.59384        4.97755       12.67770
