113

C        -10.48643        9.81469       -0.85933
C         -9.46880       10.70023       -1.04047
C         -9.65140       12.11018       -0.96198
N         -9.80170       13.26642       -0.90785
C         -8.15339       10.29004       -1.41112
N         -7.08143        9.96876       -1.71878
C        -11.92716       10.18924       -0.70641
C        -12.68959        9.09563       -1.11561
C        -14.07661        9.08843       -1.17832
C        -14.76090       10.25012       -0.77285
C        -14.01389       11.33970       -0.29686
C        -12.59082       11.32770       -0.25054
S        -15.06268       12.62369        0.20179
C        -16.44589       11.75547       -0.23173
C        -16.17066       10.51923       -0.74808
Br       -18.18834       12.41027       -0.01934
C        -11.84302        7.93107       -1.40246
O        -12.26559        6.86826       -1.80267
C        -10.44044        8.33856       -1.05104
C         -9.44564        7.45844       -0.81557
C         -9.45758        5.99661       -1.03149
C         -9.81696        5.03258       -0.04067
N        -10.35545        5.06817        1.25406
C        -11.14898        6.16087        1.79996
C        -12.63080        5.98917        1.50054
C        -10.28148        3.81082        1.87273
C         -9.99280        2.91331        0.83884
C         -9.69003        3.66319       -0.33271
C         -9.27374        3.23420       -1.61257
C         -8.89766        4.16509       -2.56868
C         -8.94809        5.51896       -2.26362
C         -9.97601        1.52262        1.08491
C        -10.21048        1.03857        2.36258
C        -10.44201        1.92941        3.39725
C        -10.49803        3.32772        3.19574
C        -10.59413        4.22147        4.36450
C        -11.25830        3.89163        5.48549
C        -11.23146        4.65915        6.71941
C        -11.84599        4.31112        7.86362
C        -11.74453        5.03279        9.11269
C        -12.21555        4.34784       10.16872
C        -12.68980        3.01363        9.82621
S        -12.81337        2.87094        8.07548
C        -12.84121        1.96724       10.66257
C        -12.60454        1.96029       12.09528
C        -12.26241        0.74629       12.55914
C        -12.21488       -0.26831       11.51958
S        -13.06713        0.29510       10.10656
C        -11.49864       -1.40321       11.59940
C        -11.28165       -2.40810       10.53508
C        -12.10898       -3.53555       10.32929
C        -11.84401       -4.49411        9.28202
N        -12.59996       -5.60220        9.13480
C        -13.58210       -5.82699       10.04176
C        -13.84626       -4.91835       11.03994
N        -13.13865       -3.76205       11.17454
C        -14.86303       -5.14548       12.01759
N        -15.69321       -5.36533       12.79529
C        -14.25765       -7.08413        9.91606
N        -14.78905       -8.11418        9.82583
C        -10.73983       -4.38757        8.42983
C         -9.82567       -3.33178        8.66186
C        -10.09406       -2.32072        9.74531
N         -9.10420       -1.41585        9.85074
S         -7.97328       -1.78542        8.69546
N         -8.67081       -3.12145        8.00684
C        -10.51389       -5.29163        7.30126
C         -9.85474       -6.45186        7.19806
C         -9.03328       -7.34726        8.03850
C         -8.96242       -7.45722        9.38747
C         -8.28731       -8.52999       10.04019
N         -7.75427       -9.40231       10.58779
C         -9.57258       -6.57384       10.31544
N        -10.01176       -5.89148       11.14528
C         -8.34336       -8.28618        7.08922
C         -8.87897       -8.12441        5.81308
C         -9.85523       -7.03524        5.80552
O        -10.49719       -6.67687        4.83956
C         -8.46627       -8.83447        4.68926
C         -7.41067       -9.75812        4.84917
C         -6.83012       -9.89744        6.11770
C         -7.27494       -9.16378        7.24569
S         -5.53378      -11.03822        6.09064
C         -5.74772      -11.33537        4.44403
C         -6.76692      -10.60978        3.88734
Br        -4.68283      -12.53410        3.47661
H        -14.60875        8.20284       -1.51529
H        -12.07612       12.19721        0.14714
H        -16.92608        9.81893       -1.08602
H         -8.46263        7.80195       -0.50144
H        -10.77083        7.10964        1.42357
H        -11.00604        6.20710        2.87710
H        -12.81620        6.00511        0.42630
H        -13.21399        6.79160        1.96181
H        -13.01303        5.03309        1.87468
H         -9.20821        2.17224       -1.83498
H         -8.54821        3.82536       -3.54056
H         -8.57001        6.21395       -3.01191
H         -9.75001        0.82834        0.28043
H        -10.17267       -0.02903        2.55844
H        -10.55252        1.51259        4.39636
H        -10.01026        5.13371        4.32556
H        -11.81711        2.95847        5.51485
H        -10.60168        5.54636        6.71215
H        -11.28909        6.01182        9.18049
H        -12.16832        4.72102       11.18211
H        -12.64128        2.84998       12.70995
H        -11.98975        0.54864       13.58679
H        -10.93027       -1.60137       12.50470
H        -11.00291       -4.89911        6.40376
H         -8.92375       -8.65442        3.71992
H         -6.74204       -9.29466        8.17990
H         -7.04651      -10.66455        2.84210
