95

C        -13.57044        1.45595       -9.61841
C        -14.86310        1.83548       -9.47319
C        -15.75416        1.97946      -10.58338
N        -16.45901        2.12269      -11.49229
C        -15.41812        2.22456       -8.22471
N        -15.88599        2.52789       -7.20754
C        -12.94115        1.07639      -10.91661
C        -11.55777        1.21397      -10.80600
C        -10.68329        1.01472      -11.86902
C        -11.23304        0.63960      -13.11974
C        -12.61632        0.42136      -13.20772
C        -13.48493        0.60689      -12.10825
S        -13.07664       -0.07878      -14.79527
C        -11.49440        0.05887      -15.36213
C        -10.59865        0.42568      -14.39286
Br       -11.01868       -0.26256      -17.14519
C        -11.18554        1.54972       -9.41912
O        -10.06150        1.74416       -9.00010
C        -12.46876        1.57941       -8.63570
C        -12.44038        1.66648       -7.29410
N        -11.34167        1.85068       -6.46119
C        -11.31077        1.90621       -5.09085
S        -12.49033        1.08429       -4.11341
C        -11.77746        1.60917       -2.68396
N        -12.35190        1.24056       -1.43330
O        -12.67959        2.16901       -0.68438
O        -12.43978        0.03139       -1.18627
C        -10.67761        2.40324       -2.87142
C        -10.38597        2.56292       -4.26977
C         -9.26929        3.33572       -4.75274
C         -8.70972        4.38039       -4.10650
C         -7.58423        5.14551       -4.57409
C         -6.55711        4.64327       -5.43514
C         -5.62343        5.59826       -5.77615
S         -4.27912        5.29552       -6.87245
C         -3.45094        6.89483       -6.97759
S         -5.95301        7.08104       -5.00503
C         -7.34850        6.46576       -4.21232
C         -8.08114        7.34591       -3.36840
C         -7.73792        7.47856       -2.07946
C         -8.49485        8.29529       -1.15478
C         -9.05815        7.83366       -0.02904
C         -9.80606        8.63612        0.90676
C        -10.23736        7.95206        1.97624
C         -9.85583        6.55031        1.97154
S         -9.00353        6.16515        0.47696
C        -10.06096        5.65881        2.95887
C        -10.70326        5.90814        4.23447
C        -10.65370        4.86858        5.08047
C         -9.97392        3.71062        4.53956
S         -9.50103        3.99410        2.88704
C         -9.69800        2.60348        5.24578
C         -8.97637        1.42679        4.80374
C         -8.19750        0.69394        5.63975
C         -7.66069       -0.39667        4.86594
C         -6.81629       -1.38856        5.21145
C         -6.48549       -2.33520        4.16410
C         -5.68549       -3.41707        4.18076
C         -5.70002       -4.06136        2.85718
C         -6.51189       -3.36368        2.03105
C         -7.02899       -2.25595        2.79763
C         -7.86584       -1.26205        2.45341
C         -8.18926       -0.31268        3.50139
C         -8.99027        0.76273        3.48556
C         -5.00405       -5.25718        2.46065
C         -3.67398       -5.38896        2.52513
H         -9.61325        1.15288      -11.74093
H        -14.53978        0.38808      -12.23493
H         -9.53804        0.55353      -14.57119
H        -13.36354        1.62454       -6.72614
H        -10.48040        2.04710       -6.98326
H        -10.10517        2.82612       -2.05515
H         -8.86253        3.04710       -5.71916
H         -9.14343        4.70681       -3.16179
H         -6.50752        3.62498       -5.80218
H         -2.59863        6.81061       -7.65661
H         -3.07549        7.20095       -5.99737
H         -4.12496        7.66008       -7.37297
H         -8.93818        7.86585       -3.78504
H         -6.89909        6.92056       -1.66314
H         -8.59336        9.34547       -1.41962
H         -9.98821        9.69080        0.75426
H        -10.80335        8.40629        2.77640
H        -11.15923        6.85309        4.49204
H        -11.05965        4.88997        6.08242
H         -9.99809        2.57620        6.29217
H         -7.98875        0.88290        6.67878
H         -6.40156       -1.49373        6.20326
H         -5.12528       -3.79091        5.02217
H         -6.73643       -3.57323        0.99839
H         -8.28685       -1.15475        1.46231
H         -9.56569        1.10428        2.63913
H         -5.61474       -6.07814        2.09253
H         -3.03546       -4.57862        2.86379
H         -3.19424       -6.31170        2.21615
