98

C         -5.06433       -2.20346       -8.06506
C         -3.95285       -2.49200       -7.34092
C         -3.11459       -3.61044       -7.60684
N         -2.42223       -4.52375       -7.81307
C         -3.49272       -1.67811       -6.26456
N         -3.09910       -1.02229       -5.39111
C         -5.55022       -2.95353       -9.27354
C         -6.61975       -2.25122       -9.83079
C         -7.32164       -2.64924      -10.96397
C         -6.92383       -3.84248      -11.59843
C         -5.84752       -4.56098      -11.05898
C         -5.15069       -4.13529       -9.89508
S         -5.52352       -5.97948      -11.99451
C         -6.78496       -5.64170      -13.06456
C         -7.46012       -4.49048      -12.76199
Br        -7.21973       -6.73477      -14.52231
C         -6.92080       -1.04155       -9.06300
O         -7.76810       -0.22841       -9.37028
C         -5.99021       -1.04923       -7.88274
C         -6.16156       -0.19364       -6.86065
C         -7.16933        0.85614       -6.78936
C         -8.08809        0.97983       -5.81926
C         -9.10202        2.00625       -5.76445
C         -9.94389        1.88316       -4.72636
C         -9.66518        0.73897       -3.87560
S         -8.24343       -0.12197       -4.47995
C        -10.36292        0.33512       -2.79583
C        -11.55506        0.94159       -2.22984
C        -12.08730        0.25367       -1.20534
C        -11.37029       -0.96303       -0.89115
S         -9.92998       -1.09635       -1.87071
C        -11.76465       -1.89633       -0.00680
C        -11.09461       -3.15630        0.08439
S        -11.56585       -4.37138       -1.06777
C        -10.32411       -5.43812       -0.61873
C         -9.56633       -4.90573        0.38917
C        -10.04903       -3.62006        0.87297
C         -9.43419       -2.94002        1.95755
C         -8.29783       -3.64226        2.43923
C         -7.82898       -4.88883        1.92061
C         -8.45432       -5.58719        0.87329
O         -7.53153       -3.13816        3.46632
C         -9.98619       -1.70357        2.52153
C        -10.85053       -1.65972        3.55009
C        -11.62431       -0.49041        3.91734
C        -12.78329       -0.80923        4.51960
C        -12.96558       -2.25051        4.62831
S        -11.39407       -3.04000        4.46619
C        -14.13399       -2.90789        4.50128
C        -15.42374       -2.30216        4.21141
C        -16.16334       -3.05701        3.37950
C        -15.49591       -4.29337        3.01981
S        -14.23118       -4.63594        4.17617
C        -15.68185       -4.95540        1.86605
C        -14.86505       -6.06244        1.41451
C        -14.55240       -6.43790        0.16815
C        -14.81913       -5.96619       -1.20353
C        -14.97888       -4.69222       -1.64600
C        -15.04194       -4.35709       -3.03182
N        -15.10370       -4.07387       -4.15553
C        -14.99444       -3.54641       -0.79973
N        -15.03436       -2.56860       -0.17403
C        -14.58107       -7.14414       -2.09942
C        -13.93329       -8.14008       -1.36600
C        -13.82853       -7.75304        0.04488
O        -13.30719       -8.42034        0.91748
C        -13.51345       -9.35340       -1.90097
C        -13.77251       -9.59364       -3.27147
C        -14.46530       -8.61738       -4.00316
C        -14.89281       -7.39330       -3.43123
S        -14.70607       -9.11689       -5.63922
C        -13.88549      -10.56829       -5.38287
C        -13.44486      -10.72487       -4.09584
Br       -13.61065      -11.83802       -6.73198
H         -8.15187       -2.05565      -11.33702
H         -4.33647       -4.75445       -9.53899
H         -8.30017       -4.11259      -13.33264
H         -5.56972       -0.25972       -5.95244
H         -7.17072        1.56510       -7.61617
H         -9.17140        2.79019       -6.50653
H        -10.76207        2.56595       -4.54733
H        -11.99162        1.85177       -2.61671
H        -12.99638        0.53972       -0.69271
H        -12.66141       -1.75685        0.58857
H        -10.20876       -6.38679       -1.12461
H         -6.93614       -5.32619        2.36669
H         -8.08578       -6.53108        0.49395
H         -7.85572       -2.24741        3.67513
H         -9.77937       -0.80754        1.94290
H        -11.34198        0.51619        3.64443
H        -13.54316       -0.09340        4.79461
H        -15.70326       -1.30965        4.53318
H        -17.10270       -2.74544        2.94609
H        -16.45186       -4.60122        1.18805
H        -14.46764       -6.67607        2.22901
H        -13.01374      -10.09298       -1.28083
H        -15.44841       -6.69879       -4.05062
H        -12.90631      -11.59680       -3.74427
