100

C        -10.90508       -9.42798       -8.91702
C        -10.02769      -10.03027       -8.07506
C         -9.82138      -11.44465       -8.04751
N         -9.64654      -12.58306       -8.01531
C         -9.17485       -9.31784       -7.18465
N         -8.46535       -8.76554       -6.44851
C        -11.73342      -10.12246       -9.96147
C        -12.28302       -9.15669      -10.80372
C        -13.04862       -9.43156      -11.93195
C        -13.28705      -10.78296      -12.24710
C        -12.78634      -11.76956      -11.38527
C        -12.02260      -11.45860      -10.22721
S        -13.22061      -13.34857      -11.94080
C        -14.00225      -12.72637      -13.30184
C        -13.98730      -11.35937      -13.35976
Br       -14.81136      -13.80117      -14.60493
C        -11.95947       -7.80745      -10.34531
O        -12.32395       -6.79848      -10.91305
C        -11.14131       -7.96511       -9.09321
C        -10.79836       -6.92256       -8.31523
C        -11.14366       -5.52102       -8.51087
C        -10.77704       -4.48717       -7.73618
C        -11.32097       -3.15594       -7.88318
C        -11.05694       -2.35445       -6.84228
C        -10.23142       -2.97448       -5.82011
S         -9.68446       -4.55748       -6.37987
C        -10.02233       -2.52165       -4.56712
C        -10.70342       -1.41330       -3.91623
C        -10.75909       -1.56582       -2.57940
C        -10.09626       -2.78284       -2.11541
S         -9.04403       -3.37634       -3.36889
C        -10.35824       -3.40054       -0.95054
C         -9.87565       -4.69104       -0.54888
S        -10.81345       -6.11276       -0.89658
C         -9.74060       -7.20105       -0.05836
C         -8.78292       -6.45557        0.58096
C         -8.78978       -5.08305        0.19606
C         -7.61759       -4.41943        0.72204
O         -7.22005       -3.30727        0.42136
C         -6.92042       -5.40009        1.67592
C         -7.66517       -6.72222        1.46838
O         -7.37187       -7.78370        1.99726
C         -9.97937       -8.59646       -0.19272
C         -9.72737       -9.48039        0.77952
C         -9.94342      -10.89918        0.59400
C        -10.79533      -11.64618        1.30708
C        -10.95662      -13.06929        1.14712
C        -11.84346      -13.60433        1.99691
C        -12.44335      -12.63863        2.90190
S        -11.86091      -11.01829        2.53351
C        -13.27555      -12.91034        3.92284
C        -13.73600      -14.22323        4.32852
C        -14.38712      -14.22830        5.49915
C        -14.50320      -12.91789        6.09548
S        -13.90570      -11.68640        5.01963
C        -14.99177      -12.69352        7.32229
C        -15.18727      -11.40409        7.95128
C        -14.30280      -10.43737        8.24634
C        -12.85785      -10.21590        8.03938
C        -11.86694      -11.13930        8.05147
C        -10.52328      -10.83450        7.68133
N         -9.43426      -10.62534        7.33968
C        -12.06742      -12.48498        8.49180
N        -12.15833      -13.56136        8.90594
C        -12.66555       -8.72245        7.99568
C        -13.86397       -8.12073        8.39131
C        -14.90687       -9.12166        8.62167
O        -16.03660       -8.89142        9.00208
C        -14.05943       -6.75093        8.52813
C        -12.97276       -5.90344        8.23866
C        -11.76012       -6.48311        7.83494
C        -11.58380       -7.89169        7.71462
S        -10.57401       -5.26141        7.52314
C        -11.65240       -4.01924        7.90582
C        -12.88813       -4.47007        8.28199
Br       -11.20516       -2.20165        7.82095
H        -13.43176       -8.62493      -12.55162
H        -11.68615      -12.27834       -9.60381
H        -14.44034      -10.78076      -14.15623
H        -10.25626       -7.09625       -7.39311
H        -11.82594       -5.29353       -9.32602
H        -11.93428       -2.86916       -8.72701
H        -11.42794       -1.34342       -6.76267
H        -11.18990       -0.61050       -4.45580
H        -11.29065       -0.89471       -1.91759
H        -11.07627       -2.93820       -0.27813
H         -7.05658       -5.05842        2.70579
H         -5.86917       -5.52704        1.41327
H        -10.40387       -8.94437       -1.13237
H         -9.37336       -9.17060        1.75966
H         -9.33702      -11.36421       -0.18024
H        -10.39417      -13.63996        0.42086
H        -12.07016      -14.66027        2.01765
H        -13.55319      -15.12016        3.75545
H        -14.78354      -15.12028        5.96464
H        -15.33677      -13.55061        7.90182
H        -16.24530      -11.19125        8.13639
H        -15.02395       -6.35674        8.83671
H        -10.61280       -8.26096        7.40593
H        -13.70838       -3.82206        8.56874
