122

C         -4.58873       -2.31244       -0.60522
C         -3.76471       -2.63769       -1.63046
C         -3.17540       -3.92885       -1.76502
N         -2.69781       -4.97830       -1.87261
C         -3.49966       -1.73430       -2.69954
N         -3.28749       -0.99600       -3.57218
C         -5.07008       -3.22311        0.47277
C         -6.25147       -2.69036        0.99711
C         -6.95363       -3.26185        2.05135
C         -6.40913       -4.41987        2.65422
C         -5.21922       -4.95588        2.13499
C         -4.53528       -4.37656        1.03618
S         -4.72921       -6.35717        3.02139
C         -6.03577       -6.22362        4.08075
C         -6.86218       -5.17015        3.79436
Br        -6.31834       -7.39826        5.51253
C         -6.56635       -1.39882        0.35681
O         -7.61048       -0.79039        0.45252
C         -5.34615       -1.05221       -0.44438
C         -4.95370        0.20643       -0.70734
C         -5.66824        1.44837       -0.33886
C         -6.57719        1.97656       -1.25322
C         -7.23253        3.17282       -0.97005
C         -7.00188        3.88404        0.22514
C         -6.08262        3.33336        1.15872
C         -5.40739        2.11029        0.86848
N         -4.50470        1.58397        1.73899
C         -4.28494        2.23177        2.90855
C         -4.96376        3.39882        3.21706
N         -5.82256        3.95421        2.33122
C         -4.80498        4.11106        4.52483
C         -3.30306        1.61275        3.85558
C         -7.73164        5.18699        0.45564
C         -8.07366        6.03959       -0.61958
C         -8.75713        7.23591       -0.38434
C         -9.10373        7.63810        0.91859
C         -8.78108        6.83469        1.99161
C         -8.11959        5.61814        1.75061
C         -9.78909        8.91350        0.86775
C         -9.89478        9.32965       -0.47686
C         -9.22675        8.29289       -1.39419
C         -8.02460        8.91593       -2.15631
C         -6.89639        9.46351       -1.28040
C        -10.24042        7.70658       -2.41462
C        -11.43847        6.97214       -1.81221
C        -10.52709       10.52445       -0.81473
C        -11.04553       11.32252        0.21527
C        -10.93571       10.90346        1.55430
C        -10.30707        9.69704        1.88626
C        -11.71639       12.59169       -0.08274
C        -13.03203       12.63957       -0.33502
C        -13.74373       13.86718       -0.64942
C        -14.90110       13.93897       -1.32707
C        -15.59309       15.16081       -1.67004
C        -16.68092       14.97363       -2.43503
C        -16.94942       13.58036       -2.74491
S        -15.73210       12.55584       -1.98196
C        -17.94903       13.08327       -3.49876
C        -18.97805       13.81567       -4.21082
C        -19.79302       13.03831       -4.94399
C        -19.47517       11.62618       -4.87392
S        -18.16928       11.35921       -3.75472
C        -20.10584       10.65536       -5.55698
C        -19.80783        9.23214       -5.54077
C        -20.74398        8.26961       -5.74218
C        -20.06744        6.99495       -5.65675
C        -20.53416        5.73639       -5.74653
C        -19.55375        4.67871       -5.58804
C        -19.69422        3.34042       -5.60352
C        -18.38776        2.69672       -5.37683
C        -17.44154        3.65687       -5.26093
C        -18.12046        4.92547       -5.36458
C        -17.65334        6.18359       -5.28735
C        -18.63935        7.23609       -5.43137
C        -18.49537        8.56722       -5.40107
C        -18.09106        1.28470       -5.35718
C        -18.95159        0.34611       -4.94372
H         -7.85967       -2.79624        2.43006
H         -3.60215       -4.82026        0.70682
H         -7.74528       -4.92232        4.37143
H         -3.97995        0.41268       -1.14478
H         -6.78082        1.46469       -2.19106
H         -7.94620        3.53884       -1.70504
H         -4.92779        3.41621        5.36161
H         -5.56809        4.88892        4.63518
H         -3.82135        4.58561        4.58650
H         -2.54204        2.34164        4.15310
H         -2.78848        0.76772        3.38701
H         -3.81836        1.24489        4.74796
H         -7.80468        5.78880       -1.64143
H         -9.03115        7.12299        3.00690
H         -7.90689        4.99971        2.62030
H         -8.38162        9.73159       -2.79843
H         -7.58722        8.16545       -2.82799
H         -7.25762       10.20338       -0.56041
H         -6.14345        9.95251       -1.90690
H         -6.39126        8.66326       -0.73047
H         -9.72492        7.00562       -3.08443
H        -10.62402        8.51314       -3.05320
H        -11.12969        6.05165       -1.30713
H        -12.13798        6.68895       -2.60568
H        -11.98466        7.59367       -1.09704
H        -10.61723       10.83062       -1.85281
H        -11.34770       11.52172        2.34918
H        -10.23308        9.39188        2.92426
H        -11.08733       13.47636       -0.10547
H        -13.60618       11.71389       -0.32113
H        -13.27433       14.78832       -0.31009
H        -15.24900       16.13242       -1.34310
H        -17.30496       15.78360       -2.78442
H        -19.07170       14.89123       -4.16533
H        -20.60756       13.41951       -5.54471
H        -20.94260       10.93320       -6.19550
H        -21.80082        8.40123       -5.90424
H        -21.57572        5.50002       -5.91387
H        -20.61180        2.79644       -5.75922
H        -16.38324        3.52481       -5.10509
H        -16.61273        6.42316       -5.11298
H        -17.55773        9.08464       -5.27725
H        -17.10057        0.98445       -5.69246
H        -19.94072        0.59455       -4.57198
H        -18.67195       -0.70228       -4.94992
