127

C          0.41024        0.38426        3.76057
C          0.52228       -0.61263        2.85273
C          1.32341       -1.76911        3.09072
N          1.97621       -2.70304        3.27850
C         -0.20598       -0.61221        1.62236
N         -0.79520       -0.60677        0.62546
C          1.00688        0.43512        5.12930
C          0.28205        1.36168        5.88563
C          0.59395        1.72069        7.19013
C          1.73731        1.13221        7.77163
C          2.47115        0.19628        7.02450
C          2.11941       -0.17269        5.69910
S          3.82597       -0.38737        7.92740
C          3.45913        0.60277        9.24421
C          2.33609        1.36214        9.05730
Br         4.49254        0.66215       10.80548
C         -0.76627        1.99029        5.07035
O         -1.67151        2.67624        5.49257
C         -0.46634        1.56638        3.66445
C         -0.73978        2.32225        2.59059
C         -1.41339        3.62097        2.62953
C         -2.80686        3.68582        2.52447
C         -3.41867        4.92903        2.46910
C         -2.63835        6.10116        2.56200
C         -1.26235        6.04616        2.71556
C         -0.64823        4.79569        2.74474
C         -3.49538        7.25201        2.46874
C         -4.82802        6.82417        2.31520
C         -4.91839        5.28150        2.32657
C         -5.49984        4.77623        0.97571
C         -5.67354        3.26488        0.82898
C         -5.69061        4.76691        3.57390
C         -7.15419        5.18921        3.69263
C         -5.83968        7.76048        2.17615
C         -5.51996        9.12534        2.24806
C         -4.18414        9.53457        2.37675
C         -3.16355        8.59740        2.49225
C         -6.61583       10.08920        2.15927
C         -6.60189       11.31243        2.71521
C         -7.69901       12.30612        2.71581
C         -8.97584       12.13872        2.14755
C        -10.00150       13.14448        2.18114
N        -11.17992       12.91364        1.55142
C        -11.33460       11.75024        0.86142
C        -10.37288       10.77743        0.86556
N         -9.22160       10.97211        1.53022
C        -10.44695        9.53690        0.15393
N        -10.46800        8.52540       -0.41622
C        -12.51657       11.62812        0.07394
N        -13.44279       11.48882       -0.60307
C         -9.80490       14.36946        2.84607
C         -8.51766       14.61539        3.40691
C         -7.44587       13.56036        3.34020
N         -6.29871       13.94584        3.92877
S         -6.52306       15.49108        4.47101
N         -8.10294       15.73094        4.03395
C        -10.86807       15.37889        3.03269
C        -11.17674       16.37425        2.18877
C        -12.15768       17.41113        2.43828
C        -12.01082       18.48600        1.64299
C        -10.88654       18.35930        0.72824
S        -10.35171       16.66964        0.69065
C        -10.21659       19.34527        0.10099
C        -10.48425       20.77145        0.12062
C         -9.45830       21.51513       -0.32938
C         -8.30206       20.73280       -0.72110
S         -8.70985       19.04514       -0.76144
C         -7.08728       21.23577       -0.99999
N         -5.86693       20.64686       -1.31046
C         -5.55445       19.22712       -1.35045
N         -4.17852       18.98429       -1.78914
C         -3.82995       20.23144       -2.49700
C         -2.32744       20.50287       -2.35164
C         -2.00936       21.98894       -2.56592
C         -2.85209       22.92667       -1.64151
C         -3.95101       22.18456       -0.87666
C         -4.72410       21.35332       -1.89321
N         -1.87275       23.56096       -0.75516
C         -0.58623       23.41173       -1.41401
N         -0.56973       22.27235       -2.33445
C         -2.18403       24.58317        0.11537
C         -1.36957       25.24550        0.93956
H          0.00678        2.46987        7.71443
H          2.75249       -0.87207        5.16350
H          1.95080        2.06344        9.78810
H         -0.38668        2.06389        1.59649
H         -3.38412        2.76987        2.48838
H         -0.67004        6.95052        2.80239
H          0.43146        4.74439        2.85590
H         -4.86740        5.12499        0.14795
H         -6.48532        5.22846        0.80530
H         -4.73700        2.72104        0.94767
H         -6.03332        3.02550       -0.17676
H         -6.39942        2.86780        1.54403
H         -5.17803        5.09132        4.48962
H         -5.66015        3.67040        3.59482
H         -7.25520        6.26416        3.86122
H         -7.61380        4.70532        4.56048
H         -7.73558        4.91403        2.80844
H         -6.86975        7.44401        2.03905
H         -3.92525       10.58981        2.38488
H         -2.13848        8.93168        2.59908
H         -7.47067        9.69058        1.62842
H         -5.70652       11.62550        3.24828
H        -11.38810       15.30150        3.98341
H        -12.89792       17.33888        3.22403
H        -12.61687       19.37801        1.72613
H        -11.41063       21.19650        0.48092
H         -9.46301       22.59582       -0.37067
H         -6.98003       22.31926       -0.96861
H         -6.22023       18.72550       -2.06108
H         -5.68939       18.77270       -0.36260
H         -4.17352       18.19536       -2.43114
H         -4.08868       20.11937       -3.55816
H         -1.76921       19.88133       -3.06373
H         -1.98322       20.19882       -1.35225
H         -2.23649       22.23956       -3.61008
H         -3.30448       23.70643       -2.27031
H         -4.61045       22.89642       -0.36782
H         -3.52618       21.55117       -0.08567
H         -5.08343       21.99686       -2.70689
H          0.22217       23.30205       -0.68233
H         -0.37180       24.31717       -1.99683
H         -0.17009       21.49623       -1.80893
H         -3.24267       24.83946        0.11556
H         -0.31522       25.01035        1.01650
H         -1.75935       26.02602        1.58443
