132

C        -15.69233      -11.22068       -3.55987
C        -15.61572      -11.86980       -2.37155
C        -15.04465      -13.16286       -2.20787
N        -14.58751      -14.21580       -2.06826
C        -16.14258      -11.33028       -1.15823
N        -16.58266      -10.91467       -0.16845
C        -15.30155      -11.79910       -4.88710
C        -15.77901      -10.96115       -5.89413
C        -15.66937      -11.22465       -7.25619
C        -15.05696      -12.43400       -7.64360
C        -14.53868      -13.27090       -6.64532
C        -14.62614      -12.95746       -5.26337
S        -13.82910      -14.68927       -7.33294
C        -14.25718      -14.22218       -8.89720
C        -14.87417      -13.00137       -8.95034
Br       -13.92636      -15.27644      -10.40945
C        -16.42477       -9.77296       -5.33259
O        -16.92014       -8.88990       -6.00219
C        -16.31472       -9.89333       -3.83659
C        -16.62840       -8.87792       -3.01018
C        -17.21366       -7.59468       -3.38086
C        -17.08567       -6.43939       -2.70752
C        -17.61815       -5.17330       -3.15949
C        -17.13924       -4.11674       -2.48458
C        -16.18845       -4.47171       -1.44446
S        -16.15926       -6.22748       -1.24474
C        -15.33493       -3.64171       -0.81351
C        -15.12915       -2.22714       -1.07468
C        -13.90318       -1.80072       -0.71798
C        -13.08050       -2.86496       -0.17074
S        -14.11233       -4.18492        0.32910
C        -11.73322       -2.87532       -0.18737
C        -10.83697       -4.03782        0.03733
C         -9.55755       -3.87050        0.60647
C         -8.68186       -4.95972        0.65567
C         -9.11326       -6.22864        0.20207
C        -10.36177       -6.41092       -0.35439
C        -11.19277       -5.30430       -0.47539
C         -8.03910       -7.17961        0.29224
C         -6.88323       -6.51413        0.71824
C         -7.19986       -5.05285        1.11342
C         -6.24711       -4.11554        0.31863
C         -6.34397       -2.61573        0.56794
C         -7.11427       -4.92439        2.66120
C         -5.77295       -5.29236        3.30139
C         -5.66011       -7.16667        0.70862
C         -5.59851       -8.50713        0.30916
C         -6.78610       -9.19459       -0.00204
C         -8.01242       -8.52759       -0.02717
C         -4.31589       -9.20992        0.20702
C         -3.16871       -8.59185       -0.12082
C         -1.96560       -9.32843       -0.26366
O         -1.91288      -10.69360       -0.14041
C         -0.62944      -11.12721       -0.31016
C          0.16441      -10.02585       -0.56458
C         -0.67529       -8.89085       -0.53014
O         -0.36570       -7.58614       -0.72620
C          0.99899       -7.28814       -0.44776
C         -0.24750      -12.48310       -0.21554
C         -1.12330      -13.45152       -0.51690
C         -0.79543      -14.87631       -0.43288
C          0.50734      -15.34361       -0.66507
C          0.75765      -16.70488       -0.62178
C         -0.28442      -17.60418       -0.32201
C         -1.57402      -17.15745       -0.08028
C         -1.82856      -15.78776       -0.14996
C          0.22852      -18.94877       -0.36454
C          1.59647      -18.91596       -0.70034
C          2.09167      -17.45620       -0.81238
C          2.72548      -17.22957       -2.21292
C          3.28493      -15.84159       -2.51429
C          3.01976      -17.08169        0.37804
C          4.30220      -17.89427        0.51190
C          2.29003      -20.09938       -0.93451
C          1.61859      -21.32477       -0.80249
C          0.27095      -21.33537       -0.39014
C         -0.43364      -20.14908       -0.18210
C          2.35151      -22.56920       -1.07486
C          1.78211      -23.68704       -1.54540
H        -16.07492      -10.53177       -7.98877
H        -14.18614      -13.65104       -4.55748
H        -15.21163      -12.53323       -9.86732
H        -16.42712       -8.95826       -1.94693
H        -17.78655       -7.57304       -4.30627
H        -18.30252       -5.09593       -3.99389
H        -17.40428       -3.09559       -2.71802
H        -15.85750       -1.60459       -1.57395
H        -13.52997       -0.80350       -0.90169
H        -11.20830       -1.98446       -0.52689
H         -9.25509       -2.89694        0.97551
H        -10.67620       -7.37095       -0.74694
H        -12.12684       -5.45101       -1.01108
H         -6.38453       -4.28513       -0.75815
H         -5.20449       -4.39018        0.52482
H         -7.32590       -2.21227        0.32001
H         -5.62473       -2.09691       -0.07761
H         -6.09994       -2.35693        1.60162
H         -7.87155       -5.57290        3.12593
H         -7.37377       -3.90332        2.96204
H         -5.61715       -6.37717        3.30512
H         -5.75648       -4.98016        4.35036
H         -4.92592       -4.82061        2.79689
H         -4.76132       -6.63514        1.00170
H         -6.75858      -10.24832       -0.27090
H         -8.91528       -9.05500       -0.31546
H         -4.34750      -10.28639        0.36333
H         -3.12163       -7.52394       -0.30474
H          1.22415      -10.06466       -0.76680
H          1.15633       -6.21838       -0.61061
H          1.67888       -7.82697       -1.11692
H          1.23208       -7.51073        0.59964
H          0.76367      -12.69789        0.10904
H         -2.13386      -13.20721       -0.84101
H          1.31241      -14.65115       -0.87632
H         -2.37752      -17.84861        0.14988
H         -2.84119      -15.43177        0.02951
H          1.99326      -17.47294       -2.99480
H          3.55267      -17.93655       -2.35385
H          2.49454      -15.09486       -2.61319
H          3.81378      -15.85876       -3.47372
H          3.99839      -15.50727       -1.75678
H          2.47169      -17.17735        1.32634
H          3.29433      -16.02113        0.31283
H          4.08965      -18.91658        0.83827
H          4.94708      -17.44763        1.27601
H          4.86728      -17.93155       -0.42254
H          3.33160      -20.07316       -1.24051
H         -0.25286      -22.27597       -0.24142
H         -1.48111      -20.17946        0.09701
H          3.42529      -22.54834       -0.90554
H          0.72121      -23.75404       -1.76435
H          2.37988      -24.57057       -1.74235
