114

C          1.34299        7.64710       -4.78908
C          0.76976        8.87266       -4.85554
C          0.95509        9.85843       -3.84102
N          1.09597       10.64825       -3.00484
C         -0.11403        9.26024       -5.90767
N         -0.79596        9.59650       -6.77978
C          2.27441        7.16691       -3.72103
C          2.31006        5.77207       -3.76591
C          3.12980        4.98550       -2.96825
C          3.98210        5.64377       -2.05665
C          3.95310        7.04612       -1.99642
C          3.11077        7.82945       -2.82878
S          5.06651        7.63623       -0.81243
C          5.57331        6.07561       -0.41607
C          4.94393        5.09937       -1.13975
Br         6.87204        5.71537        0.88449
C          1.43942        5.26345       -4.83139
O          1.09824        4.10743       -4.95560
C          1.06117        6.46670       -5.64490
C          0.71625        6.40958       -6.94003
C          0.61188        5.20757       -7.69902
S         -0.91531        4.38186       -7.71451
C         -0.34804        3.46288       -9.00621
C          0.96099        3.61502       -9.34559
C          1.55563        4.64319       -8.56105
S          1.20525        2.56024      -10.69992
C         -0.47030        2.21566      -10.96818
C         -1.41134        1.71373      -11.91327
C         -2.71822        1.99772      -11.50191
S         -2.78054        2.66967       -9.89051
C         -1.11055        2.74147       -9.88814
C         -3.90770        1.95580      -12.29763
C         -5.14957        1.66000      -11.87890
C         -6.31553        1.85809      -12.70982
C         -7.46943        1.56797      -12.09454
C         -7.31027        1.06903      -10.73633
S         -5.61283        1.02547      -10.31622
C         -8.29724        0.64398       -9.92439
C         -9.69770        0.59949      -10.28877
C        -10.46914       -0.00668       -9.38267
C         -9.75220       -0.46325       -8.21164
S         -8.07479       -0.02762       -8.29408
C        -10.38023       -1.12851       -7.23269
C         -9.88512       -1.75780       -5.92830
C         -9.94219       -0.79137       -4.70712
C         -9.51626       -1.47401       -3.36604
C         -8.56517       -2.63729       -3.37840
C         -7.55941       -2.72755       -2.49793
O         -8.74549       -3.67049       -4.27550
C        -10.08763       -4.05374       -4.66136
C        -10.78172       -2.99974       -5.59440
C        -12.16029       -2.52432       -5.16371
C        -12.43007       -1.30455       -4.67066
C        -11.38357       -0.23560       -4.44883
C        -11.74108        1.03669       -5.22175
C        -10.81724       -4.69937       -3.45003
C        -12.23872       -5.26123       -3.59868
C        -12.43817       -6.32436       -4.67718
C        -11.65696       -7.57871       -4.41925
C        -11.89541       -8.72780       -3.76275
C        -12.96129       -9.32369       -2.93423
C        -14.25645       -8.95048       -2.77083
C        -15.05457       -9.37188       -1.66295
N        -15.67871       -9.69005       -0.73026
C        -14.95955       -8.23972       -3.76600
N        -15.59869       -7.76416       -4.61739
C        -12.42367      -10.60875       -2.38124
C        -11.10908      -10.77754       -2.80984
C        -10.69685       -9.64570       -3.64594
O         -9.59487       -9.50860       -4.13850
C        -10.35649      -11.93233       -2.59775
C        -10.99204      -13.02625       -1.96508
C        -12.32916      -12.88325       -1.57195
C        -13.05681      -11.68433       -1.76283
S        -12.94818      -14.34416       -0.89137
C        -11.47613      -15.13753       -1.10527
C        -10.50910      -14.34870       -1.67113
Br       -11.20782      -16.92718       -0.62370
H          3.13180        3.90390       -3.07362
H          3.17114        8.91107       -2.76004
H          5.14461        4.04016       -1.03120
H          0.52771        7.30820       -7.51727
H          2.55957        5.01865       -8.70745
H         -1.15523        1.29892      -12.88035
H         -3.77623        2.27642      -13.32950
H         -6.25627        2.24683      -13.71785
H         -8.42843        1.69235      -12.57553
H        -10.08532        0.97894      -11.22296
H        -11.52869       -0.16789       -9.51693
H        -11.44825       -1.27342       -7.39637
H         -8.85139       -2.08259       -6.10349
H         -9.25481        0.04547       -4.89150
H        -10.40286       -1.81772       -2.81900
H         -9.10698       -0.67521       -2.73029
H         -7.38947       -1.96694       -1.74313
H         -6.89845       -3.58777       -2.49434
H         -9.88734       -4.90217       -5.33198
H        -10.95201       -3.53332       -6.54311
H        -12.99187       -3.19572       -5.35639
H        -13.45725       -1.05069       -4.41800
H        -11.44915        0.05869       -3.39170
H        -11.77301        0.89928       -6.30391
H        -11.03171        1.83949       -4.99650
H        -12.73552        1.39023       -4.91997
H        -10.17560       -5.51891       -3.09369
H        -10.83079       -3.99686       -2.61059
H        -12.95387       -4.45273       -3.75631
H        -12.53993       -5.68266       -2.63077
H        -12.13773       -5.92310       -5.65358
H        -13.49818       -6.52086       -4.78890
H        -10.66099       -7.48249       -4.86580
H         -9.33841      -12.00790       -2.97167
H        -14.10461      -11.68481       -1.48935
H         -9.50542      -14.69231       -1.89073
