103

C         -6.07059        8.89191        2.84915
C         -4.74513        8.83780        3.10784
C         -4.02797        9.90820        3.70205
N         -3.43856       10.79729        4.19312
C         -3.97431        7.66634        2.86128
N         -3.34870        6.70861        2.65518
C         -7.00174       10.00801        3.20863
C         -8.30811        9.51755        3.15798
C         -9.44573       10.28391        3.37954
C         -9.26420       11.64847        3.68395
C         -7.95658       12.15262        3.76374
C         -6.80939       11.34960        3.52264
S         -7.96860       13.83254        4.17437
C         -9.65557       13.87930        4.21084
C        -10.23919       12.67529        3.92393
Br       -10.63304       15.42753        4.60556
C         -8.32264        8.10463        2.76956
O         -9.29178        7.37998        2.83663
C         -6.92236        7.79200        2.32447
C         -6.64576        6.82969        1.42467
C         -7.58319        5.90964        0.82763
C         -8.43205        5.03823        1.38733
C         -9.24326        4.38454        0.39659
C         -8.90729        4.78232       -0.83365
C         -7.79342        5.74322       -0.63903
O         -7.16502        6.32931       -1.50241
C         -9.50153        4.39275       -2.05049
O         -8.82390        4.38566       -3.26110
C        -10.76767        3.98108       -2.37078
C        -12.04819        3.76374       -1.77154
O        -12.35534        3.86979       -0.59873
N        -12.85647        3.40679       -2.82628
C        -12.20841        3.36508       -4.04286
O        -12.69919        3.06889       -5.11443
C        -10.85902        3.73898       -3.75279
C         -9.64298        3.99636       -4.32993
C         -9.09174        4.03099       -5.63900
C         -9.61084        3.60586       -6.80964
C         -8.95647        3.80385       -8.10638
C         -7.67267        4.31927       -8.13190
S         -6.99765        4.43488       -9.66535
C         -8.40877        3.81979      -10.40693
C         -9.44922        3.58743       -9.49483
C        -10.69252        3.21340      -10.09520
C        -11.95755        2.84742       -9.29082
C        -12.49639        3.70940       -8.17501
C        -10.75185        3.01911      -11.58451
C        -12.16550        2.75148      -12.05064
C        -12.17831        1.89290      -13.22205
C         -9.59490        3.13194      -12.49470
C         -9.22550        2.92798      -13.99225
C         -7.92268        3.35664      -14.20502
S         -7.12324        3.89226      -12.82509
C         -8.46527        3.59204      -11.80971
C         -9.89944        2.50040      -15.25446
C        -10.73818        1.47628      -15.52412
C        -11.52181        1.15462      -16.71768
C        -12.69752        0.47564      -16.71492
C        -13.66747        0.01783      -15.68845
C        -14.56268        0.76789      -14.98360
C        -15.52284        0.20602      -14.08344
N        -16.25837       -0.25530      -13.29302
C        -14.60455        2.19163      -15.09627
N        -14.66053        3.34924      -15.13251
C        -13.97448       -1.40019      -15.99337
C        -13.69136       -1.58335      -17.34664
C        -12.96924       -0.41174      -17.90207
O        -12.61482       -0.26149      -19.04893
C        -14.02802       -2.73483      -18.03517
C        -14.68919       -3.76048      -17.31920
C        -14.90449       -3.60431      -15.93991
C        -14.52684       -2.43466      -15.24152
S        -15.69281       -4.99182      -15.27335
C        -15.79592       -5.73579      -16.78489
C        -15.22056       -5.00690      -17.78968
Br       -16.61775       -7.39505      -17.06505
H        -10.43596        9.84495        3.29112
H         -5.83197       11.81602        3.57006
H        -11.31024       12.51433        3.88833
H         -5.65490        6.75812        0.97919
H         -8.56631        4.88208        2.44867
H        -10.03196        3.69348        0.65799
H        -13.83681        3.20589       -2.72458
H         -8.11427        4.49940       -5.62532
H        -10.55869        3.08440       -6.78907
H         -7.04744        4.64011       -7.31403
H        -11.85982        1.79536       -8.98942
H        -12.84925        2.88408       -9.90763
H        -11.82398        4.49067       -7.83778
H        -12.78419        3.03695       -7.36606
H        -13.42923        4.20019       -8.47982
H        -12.71096        2.08370      -11.38845
H        -12.72262        3.68346      -12.18997
H        -13.09207        1.32569      -13.25167
H        -11.38459        1.15578      -13.09267
H        -12.11346        2.56093      -14.07625
H         -7.37275        3.38994      -15.13716
H         -9.59781        3.08548      -16.13038
H        -10.90144        0.72224      -14.77228
H        -11.00268        1.30353      -17.66755
H        -13.81028       -2.82974      -19.09482
H        -14.71600       -2.36083      -14.17469
H        -15.18615       -5.32202      -18.82505
