88

C         -8.50908       -3.81758       -4.95417
C         -7.74577       -4.56008       -5.79337
C         -7.92856       -5.97166       -5.97374
N         -8.06795       -7.11359       -6.12610
C         -6.69656       -3.99581       -6.57118
N         -5.84865       -3.53048       -7.22108
C         -9.62789       -4.32602       -4.07795
C        -10.11985       -3.24333       -3.35159
C        -11.29507       -3.24576       -2.60666
C        -11.98139       -4.46783       -2.49461
C        -11.41058       -5.61145       -3.07419
C        -10.23446       -5.56150       -3.87764
S        -12.33613       -7.01784       -2.67419
C        -13.51354       -6.10030       -1.88273
C        -13.23115       -4.76187       -1.85592
Br       -15.05257       -6.83954       -1.11216
C         -9.23195       -2.10106       -3.48058
O         -9.09915       -1.22761       -2.64803
C         -8.44446       -2.34375       -4.72511
C         -7.99617       -1.30750       -5.46064
N         -8.17501        0.07503       -5.37264
C         -9.22851        0.81520       -4.89037
S        -10.84894        0.18941       -4.74418
C        -11.29082        1.47198       -3.75042
N        -12.47439        1.36503       -2.97776
O        -13.47921        1.94817       -3.40010
O        -12.39348        0.70394       -1.92573
C        -10.46500        2.55254       -3.87562
C         -9.26257        2.18050       -4.57496
C         -8.19299        3.09725       -4.87235
C         -8.39893        4.37157       -5.26042
C         -7.39345        5.26374       -5.77121
S         -5.77106        4.71029       -6.02481
C         -5.27512        6.16854       -6.72302
C         -6.27599        7.11444       -6.76058
C         -6.07875        8.47376       -7.35382
C         -7.49204        6.61125       -6.15114
C         -8.62003        7.47784       -5.88434
C         -9.93114        7.21661       -6.02990
C        -11.03485        8.01112       -5.50272
C        -10.91824        9.12879       -4.76875
C        -12.01073        9.71002       -4.00158
C        -11.86142       10.18718       -2.75264
C        -12.91747       10.67511       -1.89531
C        -12.52751       10.90238       -0.62862
C        -11.12075       10.62669       -0.38609
S        -10.33777       10.18522       -1.90149
C        -10.45917       10.63947        0.78800
C        -10.99205       10.91168        2.10982
C        -10.12508       10.66532        3.10683
C         -8.83959       10.17794        2.65226
S         -8.74496       10.24002        0.91255
C         -7.86061        9.70957        3.44445
C         -6.65411        9.18715        2.92081
S         -6.43434        7.55024        2.38637
C         -4.80061        7.83046        1.84508
C         -4.49402        9.11583        2.12083
C         -5.49861        9.84931        2.71104
O         -5.22744       11.15273        3.00357
C         -3.92368       11.21236        2.54438
N         -3.27139       12.47798        2.71197
O         -2.08373       12.53038        2.36343
O         -3.92685       13.41085        3.19204
C         -3.42791       10.02078        1.99804
H        -11.66632       -2.33084       -2.15100
H         -9.86609       -6.48662       -4.30450
H        -13.86785       -4.01473       -1.39532
H         -7.38369       -1.49183       -6.33916
H         -7.36010        0.59400       -5.70140
H        -10.66474        3.52789       -3.44330
H         -7.18883        2.68662       -4.83949
H         -9.41990        4.73098       -5.27267
H         -4.25858        6.27166       -7.07790
H         -5.21533        8.48050       -8.02973
H         -5.90103        9.21437       -6.56885
H         -6.95173        8.77648       -7.94032
H         -8.33111        8.44382       -5.47585
H        -10.24887        6.27869       -6.47891
H        -12.01265        7.53851       -5.59368
H         -9.94294        9.58189       -4.61172
H        -12.99820        9.67884       -4.45479
H        -13.93115       10.81212       -2.24649
H        -13.19956       11.24598        0.14519
H        -12.00294       11.25519        2.27856
H        -10.35981       10.78918        4.15554
H         -7.98656        9.69079        4.52225
H         -4.21808        7.04413        1.38535
H         -2.43950        9.86513        1.58815
