88

C         -5.93157       -2.54222       -0.45249
C         -4.82940       -3.05631        0.14010
C         -4.61219       -4.45994        0.26205
N         -4.43853       -5.60256        0.34836
C         -3.77976       -2.23080        0.61639
N         -2.93178       -1.54557        1.02219
C         -7.06327       -3.30850       -1.04865
C         -7.72653       -2.47382       -1.95189
C         -8.91320       -2.80316       -2.59151
C         -9.50227       -4.04410       -2.26436
C         -8.83028       -4.90161       -1.37761
C         -7.59619       -4.56017       -0.76745
S         -9.72657       -6.35814       -1.12567
C        -10.99684       -5.82004       -2.09719
C        -10.76939       -4.59355       -2.66054
Br       -12.56914       -6.80166       -2.36545
C         -7.09577       -1.14797       -1.98297
O         -7.27674       -0.29302       -2.82209
C         -6.19681       -1.12508       -0.78197
C         -5.99136       -0.02329       -0.04110
C         -6.60763        1.22128       -0.34967
O         -6.02560        2.20218       -1.14607
C         -7.82116        1.73169        0.03144
C         -8.99577        1.41430        0.78017
O         -9.23054        0.38640        1.39298
N         -9.80791        2.52149        0.63078
C         -9.26067        3.52238       -0.15501
O         -9.75717        4.58350       -0.46165
C         -7.98107        2.99710       -0.52538
C         -6.87554        3.30237       -1.26597
C         -6.58763        4.46837       -2.01512
C         -5.78107        4.40440       -3.08266
C         -5.48421        5.57084       -3.87794
C         -4.77056        5.62531       -5.02171
C         -4.12172        4.43812       -5.68441
C         -4.58741        6.92113       -5.79129
N         -5.72572        7.81285       -5.63229
C         -7.01744        7.50440       -5.99788
C         -8.10679        8.21058       -5.68250
C         -9.45533        7.79171       -6.00932
C        -10.55762        8.17946       -5.35038
C        -11.91432        7.86458       -5.73553
C        -12.82650        8.64160       -5.12758
C        -12.23474        9.61621       -4.22364
S        -10.55346        9.18541       -3.92396
C        -12.77271       10.78025       -3.81427
C        -14.04953       11.33985       -4.21284
C        -14.07697       12.68177       -4.12887
C        -12.82110       13.25091       -3.66087
S        -11.88148       11.99395       -2.89985
C        -12.45456       14.52831       -3.87279
C        -11.17324       15.13528       -3.61354
S         -9.68095       14.28137       -3.91857
C         -8.68855       15.61267       -3.53508
C         -9.44215       16.70772       -3.21767
C        -10.86338       16.44393       -3.25484
C        -11.82446       17.42398       -2.95788
C        -11.24065       18.66855       -2.61145
S        -12.31663       20.02457       -2.13978
C         -9.82636       18.90724       -2.58747
C         -8.85808       17.93116       -2.89798
H         -9.40597       -2.09077       -3.24758
H         -7.15552       -5.24600       -0.05156
H        -11.47504       -4.08445       -3.30624
H         -5.45740       -0.06192        0.90179
H        -10.72207        2.60015        1.03945
H         -7.06811        5.40089       -1.72258
H         -5.36060        3.44784       -3.37789
H         -5.91454        6.49636       -3.49449
H         -4.42918        3.47865       -5.26384
H         -3.03310        4.51097       -5.59847
H         -4.38362        4.40406       -6.74763
H         -4.46554        6.72160       -6.86209
H         -3.67332        7.42209       -5.45234
H         -5.65955        8.44701       -4.83908
H         -7.10382        6.55469       -6.52320
H         -7.98519        9.15281       -5.15287
H         -9.55408        7.15383       -6.88476
H        -12.14977        7.11245       -6.47553
H        -13.88646        8.58569       -5.32731
H        -14.86270       10.74339       -4.60065
H        -14.91678       13.28761       -4.43871
H        -13.17808       15.18099       -4.35626
H         -7.61228       15.51787       -3.58042
H        -12.89312       17.25976       -2.96105
H        -13.09420       19.98300       -3.22997
H         -9.46644       19.89813       -2.30573
H         -7.79484       18.13103       -2.87466
