110

C         -8.31341        3.08503       -7.56755
C         -8.75721        4.06722       -6.74974
C         -9.94471        4.81916       -7.02181
N        -10.89702        5.44661       -7.24957
C         -8.08182        4.46602       -5.54555
N         -7.51015        4.80605       -4.60313
C         -8.86847        2.71625       -8.91031
C         -7.91390        1.96253       -9.59663
C         -8.08303        1.47143      -10.88688
C         -9.30287        1.75042      -11.54112
C        -10.28345        2.48003      -10.85049
C        -10.09116        2.96078       -9.52890
S        -11.69840        2.69072      -11.82200
C        -11.01075        1.85870      -13.11873
C         -9.74877        1.39506      -12.86007
Br       -11.89207        1.59670      -14.75041
C         -6.73380        1.72105       -8.75285
O         -5.72007        1.15723       -9.11133
C         -7.06798        2.29562       -7.40820
C         -6.42468        1.93435       -6.28810
C         -5.28081        1.04431       -6.20985
C         -5.26237       -0.11529       -5.53499
C         -4.10895       -0.97038       -5.39730
C         -4.32806       -2.05181       -4.63499
C         -5.68277       -2.14312       -4.11540
S         -6.64694       -0.79342       -4.71769
C         -6.16168       -3.08025       -3.27448
C         -5.41218       -4.17151       -2.67649
C         -6.11934       -4.90783       -1.80649
C         -7.48712       -4.47309       -1.66967
S         -7.83327       -3.11728       -2.70945
C         -8.40490       -5.00393       -0.85016
N         -9.72923       -4.62140       -0.73511
C        -10.68278       -5.15632        0.07238
C        -11.98895       -5.26164       -0.36032
S        -12.97652       -6.11808        0.74070
C        -11.68106       -6.28667        1.84303
C        -10.53334       -5.65001        1.41443
N         -9.45664       -5.53926        2.24789
C         -8.71483       -4.38794        2.46496
C         -7.95835       -4.14921        3.54657
C         -7.20027       -2.95373        3.70496
S         -5.58202       -3.02521        3.08581
C         -5.21453       -1.46609        3.63450
C         -6.27981       -0.89351        4.28526
C         -7.46575       -1.71646        4.31115
N         -8.64708       -1.28503        4.92132
C         -9.49094       -2.25992        5.64555
C         -9.04699       -2.44648        7.09562
C         -9.08656        0.08473        5.05875
C         -9.97976        0.51101        6.07236
C        -10.34354        1.84850        6.19063
C         -9.81493        2.80792        5.31655
C         -8.98862        2.43036        4.27745
C         -8.65015        1.07604        4.14375
C        -10.37952        4.09691        5.62905
C        -11.32868        3.95826        6.66300
C        -11.34623        2.50291        7.15381
C        -12.78132        1.90074        7.00704
C        -13.38330        1.86755        5.59712
C        -10.87975        2.38888        8.64150
C         -9.46334        2.87120        8.97507
C        -12.15741        5.01822        7.01095
C        -12.03557        6.22713        6.30810
C        -10.99442        6.37826        5.36534
C        -10.16601        5.31380        5.01727
C        -13.01459        7.30467        6.52776
C        -13.32498        8.22170        5.59979
H         -7.30087        0.88803      -11.36611
H        -10.90412        3.49501       -9.05100
H         -9.15452        0.83304      -13.57061
H         -6.78617        2.23828       -5.31028
H         -4.38423        1.37867       -6.72932
H         -3.15762       -0.74150       -5.85826
H         -3.56440       -2.78788       -4.42725
H         -4.37004       -4.36038       -2.89034
H         -5.71800       -5.74487       -1.25203
H         -8.13826       -5.83547       -0.20157
H        -10.01315       -4.04171       -1.52567
H        -12.40572       -4.92771       -1.29972
H        -11.85100       -6.78593        2.78577
H         -9.44127       -6.14652        3.06401
H         -8.80469       -3.64238        1.67579
H         -7.87165       -4.89399        4.33105
H         -4.23257       -1.04453        3.47094
H         -6.20582        0.08992        4.73128
H         -9.48230       -3.24058        5.17311
H        -10.55090       -1.97866        5.59383
H         -8.01141       -2.79244        7.15392
H         -9.68841       -3.18770        7.58287
H         -9.10904       -1.52861        7.68696
H        -10.42043       -0.17186        6.78487
H         -8.63851        3.15455        3.54918
H         -8.04980        0.79966        3.27985
H        -13.47575        2.46913        7.64039
H        -12.79343        0.87325        7.39246
H        -13.44191        2.86225        5.14533
H        -14.40676        1.47628        5.64472
H        -12.82059        1.21229        4.92550
H        -10.94729        1.34146        8.96624
H        -11.57209        2.95133        9.28201
H         -8.69524        2.29472        8.45032
H         -9.27437        2.74789       10.04915
H         -9.32683        3.93134        8.74394
H        -12.93635        4.88468        7.75913
H        -10.84583        7.32264        4.85091
H         -9.41214        5.43752        4.24928
H        -13.54400        7.30585        7.47652
H        -12.86197        8.24147        4.61758
H        -14.07903        8.97771        5.78925
