97

C         -5.61489       -0.19618        2.56842
C         -6.20928       -1.39681        2.75864
C         -5.67282       -2.38140        3.64083
N         -5.23194       -3.18105        4.35587
C         -7.44606       -1.74400        2.15242
N         -8.45858       -2.03014        1.64683
C         -4.39647        0.32250        3.24849
C         -4.41412        1.71714        3.17444
C         -3.39443        2.53942        3.63485
C         -2.23755        1.91027        4.14073
C         -2.20438        0.50764        4.21267
C         -3.28594       -0.30940        3.79089
S         -0.68715       -0.04317        4.83121
C         -0.08543        1.52986        4.93663
C         -0.99297        2.48585        4.56888
Br         1.66028        1.92522        5.48738
C         -5.56031        2.17940        2.38092
O         -5.90408        3.33376        2.25342
C         -6.13969        0.93472        1.77918
C         -6.78360        0.91583        0.60031
C         -7.08414        2.04575       -0.22265
C         -6.13735        2.49718       -1.11768
S         -6.71725        3.78836       -2.04886
C         -8.25946        3.71479       -1.31003
C         -8.35592        2.74071       -0.32862
C         -9.61387        2.62899        0.35291
C         -9.70212        1.83060        1.65176
C         -9.37779        2.70407        2.86491
C        -10.78518        3.37382       -0.12507
C        -12.15145        3.04982        0.48141
C        -12.94387        1.95345       -0.23116
C        -10.61716        4.40992       -1.12204
C        -11.49932        5.39907       -1.76462
C        -10.80368        6.25110       -2.60293
S         -9.17184        5.85127       -2.74706
C         -9.33228        4.55689       -1.64782
C        -12.92238        5.57244       -1.61666
C        -13.73722        6.00598       -2.59517
C        -15.18265        6.00608       -2.49807
C        -15.97147        5.35669       -3.36914
C        -17.40809        5.25792       -3.28433
C        -17.92856        4.33441       -4.10848
C        -16.93120        3.62521       -4.89490
S        -15.36754        4.41108       -4.71010
C        -17.10225        2.47575       -5.57523
C        -18.32442        1.69966       -5.67251
C        -18.12925        0.44462       -6.10615
C        -16.73915        0.14142       -6.37680
S        -15.78019        1.59841       -6.34970
C        -16.25818       -1.09976       -6.54833
C        -14.87943       -1.38870       -6.66482
S        -14.03965       -1.62229       -8.15333
C        -12.51166       -1.98484       -7.37865
C        -12.71327       -1.88636       -6.04013
C        -14.00077       -1.57549       -5.65790
O        -14.25460       -1.49486       -4.31848
C        -12.98602       -1.76123       -3.83664
N        -12.84175       -1.72862       -2.40877
O        -11.70242       -1.94257       -1.97346
O        -13.84818       -1.50138       -1.72815
C        -12.02399       -2.02525       -4.81764
C        -11.33122       -2.31939       -8.13440
S         -9.75723       -2.02083       -7.52374
C         -8.99117       -2.65940       -8.91268
C         -7.54516       -2.71091       -9.04244
O         -6.93945       -3.14162      -10.01317
O         -6.89348       -2.23123       -7.95096
C         -9.92341       -3.09240       -9.83516
C        -11.26427       -2.89795       -9.38843
H         -3.45817        3.61917        3.52382
H         -3.17987       -1.38812        3.83444
H         -0.78512        3.54942        4.56611
H         -7.05605       -0.03278        0.14691
H         -5.13128        2.13238       -1.27607
H         -9.00708        0.99241        1.63621
H        -10.67280        1.34791        1.77598
H         -8.35252        3.08326        2.83016
H         -9.47913        2.12715        3.78997
H        -10.03886        3.57412        2.93017
H        -12.75885        3.94826        0.50331
H        -12.06907        2.80497        1.54288
H        -13.07758        2.16150       -1.29784
H        -13.94419        1.87910        0.21475
H        -12.47192        0.97005       -0.13172
H        -11.18183        7.09306       -3.16616
H        -13.38464        5.29547       -0.68009
H        -13.33784        6.26328       -3.57485
H        -15.61445        6.51876       -1.64248
H        -17.99187        5.85117       -2.59443
H        -18.98360        4.10585       -4.14796
H        -19.29102        2.07670       -5.36999
H        -18.91576       -0.29321       -6.18665
H        -16.93593       -1.94783       -6.52596
H        -10.98621       -2.26796       -4.63581
H         -7.51863       -1.92207       -7.26748
H         -9.65252       -3.53276      -10.78934
H        -12.13499       -3.18318       -9.96810
