104

C         -6.25623        2.83763       -6.75731
C         -5.17073        3.03690       -7.54958
C         -5.12170        2.62200       -8.91579
N         -5.07316        2.28713      -10.01706
C         -4.03530        3.76143       -7.11098
N         -3.10998        4.35385       -6.73480
C         -7.55779        2.23342       -7.18482
C         -8.53661        2.58519       -6.25385
C         -9.86281        2.16518       -6.33057
C        -10.22808        1.30820       -7.39671
C         -9.24785        0.95124       -8.33473
C         -7.90705        1.40548       -8.24818
S         -9.89579       -0.09621       -9.54820
C        -11.41859       -0.10172       -8.82172
C        -11.48539        0.67367       -7.69453
Br       -12.86877       -1.08064       -9.49219
C         -7.94582        3.36310       -5.14832
O         -8.56340        3.88059       -4.24136
C         -6.45280        3.33738       -5.37095
C         -5.53967        3.57138       -4.40500
C         -5.88275        3.98513       -3.08146
S         -5.98959        5.65110       -2.69759
C         -6.77792        5.37776       -1.19221
C         -6.66980        4.02177       -0.87418
C         -6.02628        3.26651       -1.90928
N         -5.60854        1.90039       -1.78949
O         -4.41475        1.67443       -2.02260
O         -6.46222        1.07569       -1.45510
C         -7.11824        3.39101        0.33406
N         -7.44295        2.87152        1.31898
C         -7.31473        6.50540       -0.28446
C         -7.26455        6.29437        1.08262
S         -7.75698        7.60603        2.00904
C         -7.96494        8.57060        0.62222
C         -7.79756        7.88599       -0.58450
C         -8.14305        8.66196       -1.75987
C         -8.39291        8.00556       -3.11458
C         -9.79375        7.44091       -3.29872
C         -8.34591       10.12742       -1.66132
C         -8.48251       10.94253       -2.94464
C         -9.91076       11.02992       -3.46116
C         -8.40659       10.77837       -0.37775
C         -8.54626       12.15923        0.10466
C         -8.67820       12.21238        1.48208
S         -8.50526       10.71800        2.22491
C         -8.27915        9.93655        0.72180
C         -8.60141       13.41256       -0.61151
C         -8.16406       14.56138       -0.05332
C         -8.43819       15.83879       -0.59745
O         -8.50233       16.08511       -1.95637
C         -8.88622       17.38189       -2.06528
C         -9.13437       18.31362       -3.07060
C         -8.95816       18.03091       -4.46954
O         -9.20470       18.82678       -5.36351
N         -8.47505       16.77641       -4.76020
C         -9.54852       19.45554       -2.36281
O         -9.56083       19.15183       -0.99406
C         -9.06543       17.90365       -0.86567
C         -8.70976       16.99994        0.12933
C         -9.95958       20.74815       -2.83853
C        -10.36556       21.76758       -2.05708
C        -10.52068       21.95332       -0.60363
C         -9.61218       21.66849        0.36541
C         -9.88596       21.80633        1.75342
N        -10.12698       21.87106        2.88874
C         -8.28020       21.27337        0.05609
N         -7.17781       20.98156       -0.17523
C        -11.65659       22.90218       -0.40912
C        -11.87761       23.55607       -1.62573
C        -11.08454       22.92205       -2.70086
O        -11.06885       23.25618       -3.86648
C        -12.72598       24.65096       -1.76567
C        -13.37904       25.13201       -0.60399
C        -13.22457       24.42077        0.59644
C        -12.39475       23.27854        0.70688
S        -14.13436       25.14414        1.87499
C        -14.61898       26.42404        0.88886
C        -14.19816       26.29974       -0.40903
Br       -15.62470       27.87351        1.51922
H        -10.58353        2.45291       -5.56940
H         -7.19914        1.06078       -8.99320
H        -12.38001        0.78282       -7.09296
H         -4.48003        3.40636       -4.57247
H         -6.91128        5.44997        1.64996
H         -7.72091        7.18307       -3.25294
H         -8.14028        8.65311       -3.95446
H        -10.02447        6.68245       -2.54612
H         -9.86526        6.97158       -4.28708
H        -10.56841        8.20622       -3.23816
H         -7.81457       10.56187       -3.72368
H         -8.09549       11.94976       -2.77925
H        -10.23047       10.09340       -3.91885
H         -9.98718       11.78916       -4.24488
H        -10.62001       11.27503       -2.66483
H         -8.84656       13.07874        2.10749
H         -9.09565       13.43678       -1.57932
H         -7.68390       14.55857        0.92094
H         -8.21569       16.11096       -4.04276
H         -8.29643       16.53331       -5.72067
H         -8.70950       17.13046        1.20134
H        -10.02319       20.86741       -3.92198
H        -12.84361       25.14603       -2.72624
H        -12.32407       22.77227        1.66282
H        -14.42346       27.02126       -1.18540
