87

C         -2.38569       -2.32364        2.18589
C         -2.57231       -2.69258        3.47797
C         -1.90700       -3.79609        4.08193
N         -1.35770       -4.68184        4.60156
C         -3.42912       -1.99693        4.38139
N         -4.10554       -1.44307        5.14431
C         -1.47983       -3.00670        1.19586
C         -1.52909       -2.31021       -0.01223
C         -0.80493       -2.65177       -1.15223
C          0.04346       -3.77556       -1.08198
C          0.10311       -4.49209        0.12142
C         -0.65532       -4.12750        1.26703
S          1.19863       -5.82403       -0.00531
C          1.58231       -5.44039       -1.60349
C          0.90832       -4.34694       -2.07670
Br         2.81274       -6.41452       -2.62624
C         -2.43467       -1.16309        0.07375
O         -2.64567       -0.38990       -0.83900
C         -2.99257       -1.16223        1.47201
C         -3.89173       -0.24051        1.86213
C         -4.41148        0.84495        1.04180
C         -5.70495        1.01973        0.73161
C         -6.21854        2.02649       -0.16879
C         -7.49133        1.81314       -0.54178
C         -8.06957        0.61293        0.03802
S         -6.98542       -0.02467        1.28042
C         -9.19158       -0.02511       -0.34472
C        -10.08685        0.31190       -1.43401
C        -10.92994       -0.68336       -1.76228
C        -10.75277       -1.88351       -0.96329
S         -9.72293       -1.52847        0.39174
C        -11.30293       -3.07563       -1.25261
C        -11.10243       -4.30906       -0.56642
S        -12.34676       -5.53679       -0.48952
C        -11.35684       -6.69082        0.38575
C        -10.14384       -6.11057        0.53250
C        -10.00853       -4.84162        0.01984
N         -8.74052       -4.36997        0.19182
N         -7.95905       -5.29428        0.83602
C         -8.81287       -6.34863        1.02271
C        -11.86857       -7.96538        0.75167
C        -11.39025       -8.61585        1.82243
C        -11.80465       -9.95318        2.22276
C        -11.33264      -10.62083        3.28907
C        -11.70037      -11.96186        3.68668
C        -11.00938      -12.42606        4.74402
C        -10.03567      -11.48058        5.26748
S        -10.14570       -9.96503        4.37780
C         -9.16976      -11.63991        6.28744
C         -9.00833      -12.79092        7.15441
C         -8.19825      -12.56548        8.20272
C         -7.66273      -11.21867        8.24735
S         -8.05173      -10.36290        6.78470
C         -7.00339      -10.68078        9.28612
C         -6.59214       -9.32568        9.32508
S         -7.56830       -8.00883        9.89648
C         -6.31833       -6.81915        9.63335
C         -5.23337       -7.46721        9.15909
C         -5.38761       -8.82482        8.98614
O         -4.31331       -9.51737        8.51948
C         -3.41190       -8.47447        8.40941
N         -2.10275       -8.85423        7.96770
O         -1.26290       -7.94758        7.89977
O         -1.90334      -10.04842        7.71197
C         -3.90505       -7.21580        8.77770
H         -0.89135       -2.06131       -2.06069
H         -0.55321       -4.74214        2.15282
H          1.02118       -3.95449       -3.08025
H         -4.34409       -0.25701        2.84728
H         -3.66472        1.50718        0.60743
H         -5.61005        2.84248       -0.53428
H         -8.02248        2.44807       -1.23635
H        -10.05645        1.26026       -1.95161
H        -11.65148       -0.62093       -2.56593
H        -11.97886       -3.12061       -2.10631
H         -8.38322       -3.44879       -0.04007
H         -8.42341       -7.24276        1.49277
H        -12.64824       -8.40317        0.13641
H        -10.63902       -8.13010        2.44394
H        -12.53051      -10.43764        1.57481
H        -12.45939      -12.53067        3.16601
H        -11.15803      -13.41191        5.16234
H         -9.51983      -13.72937        6.99035
H         -7.98920      -13.29831        8.97075
H         -6.80624      -11.27817       10.17027
H         -6.47686       -5.77318        9.85857
H         -3.35414       -6.28406        8.77849
