97

C         -6.92559       -2.64621        0.78402
C         -8.00963       -3.45468        0.73862
C         -7.92663       -4.88103        0.75572
N         -7.86027       -6.03541        0.77239
C         -9.33910       -2.93880        0.71667
N        -10.42118       -2.52546        0.67961
C         -5.49399       -3.08656        0.88869
C         -4.71385       -1.97450        1.21050
C         -3.32946       -1.99353        1.33048
C         -2.66970       -3.22323        1.12718
C         -3.43888       -4.35685        0.82505
C         -4.85298       -4.30818        0.68873
S         -2.43385       -5.75398        0.64882
C         -1.03099       -4.86353        0.94636
C         -1.26782       -3.53339        1.16391
Br         0.68210       -5.62101        0.97852
C         -5.53861       -0.76774        1.33059
O         -5.15930        0.31295        1.73488
C         -6.90427       -1.16100        0.85354
C         -7.77363       -0.23147        0.40230
C         -7.49491        1.22066        0.32274
C         -7.76783        2.15935        1.33199
C         -7.49450        3.56603        1.15009
N         -7.82703        4.45453        2.11227
C         -8.43258        3.99765        3.23354
C         -8.65388        2.65296        3.42673
N         -8.32766        1.72772        2.48317
C         -9.24369        2.14488        4.61888
N         -9.71433        1.75716        5.60154
C         -8.87819        5.00756        4.14633
N         -9.26337        5.82991        4.87187
C         -6.90779        4.11984       -0.01280
C         -6.58972        3.17792       -1.03850
C         -6.91423        1.71411       -0.87768
N         -6.60365        0.98174       -1.96368
S         -5.92176        2.01784       -3.06149
N         -5.97042        3.42910       -2.20429
N         -6.74113        5.54542       -0.03783
C         -6.72840        6.40865       -1.08810
S         -7.58658        6.12793       -2.56105
C         -6.97388        7.53307       -3.26015
N         -7.25491        7.79826       -4.63276
O         -7.77934        8.88872       -4.88966
O         -6.92854        6.93074       -5.45379
C         -6.27495        8.32434       -2.38404
C         -6.15118        7.67867       -1.10909
C         -5.46293        8.27775        0.00301
C         -4.14857        8.12492        0.22680
C         -3.39963        8.79135        1.28525
C         -2.08950        9.08965        1.21703
C         -1.30651        9.73637        2.24766
C         -0.05686       10.05310        1.86485
C          0.23536        9.71952        0.48010
S         -1.11392        8.81156       -0.20244
C          1.31679       10.06946       -0.24514
C          2.49058       10.80071        0.19349
C          3.31749       11.15924       -0.80476
C          2.84700       10.77147       -2.11888
S          1.44192        9.74577       -1.97223
C          3.35674       11.19941       -3.29014
C          2.75760       10.96091       -4.59288
C          2.34990       11.96583       -5.41062
C          1.51653       11.35871       -6.42536
C          0.70068       11.91856       -7.33935
C         -0.21065       11.01054       -8.01292
C         -1.27960       11.25898       -8.79334
C         -1.98938        9.99885       -9.08382
C         -1.27782        8.96896       -8.56971
C         -0.18121        9.55113       -7.83310
C          0.70188        8.98480       -6.99199
C          1.52597        9.90371       -6.23106
C          2.31181        9.67809       -5.16830
C         -3.24821        9.82623       -9.77065
C         -4.22182       10.74674       -9.78610
H         -2.77977       -1.08293        1.55300
H         -5.37256       -5.21982        0.41670
H         -0.49021       -2.80358        1.35591
H         -8.71220       -0.50306       -0.06792
H         -6.46754        5.89148        0.88177
H         -5.84775        9.28675       -2.64397
H         -6.04481        8.94803        0.63192
H         -3.57830        7.48237       -0.44405
H         -3.96146        9.07129        2.17409
H         -1.70338        9.94915        3.23134
H          0.65247       10.55237        2.51001
H          2.67700       11.04074        1.23086
H          4.22763       11.72478       -0.65872
H          4.20815       11.87455       -3.28844
H          2.44775       13.02595       -5.24238
H          0.61486       12.98714       -7.48399
H         -1.63333       12.22755       -9.10830
H         -1.53388        7.92161       -8.57839
H          0.72441        7.92386       -6.78332
H          2.49211        8.72052       -4.70467
H         -3.42419        8.86773      -10.25367
H         -4.12581       11.70145       -9.27814
H         -5.16411       10.54886      -10.28724
