107

C         -3.67629        0.19503        0.33757
C         -2.54707       -0.03768       -0.36589
C         -1.51064       -0.94277        0.09746
N         -0.68732       -1.64798        0.45195
C         -2.31928        0.55090       -1.63078
N         -2.13320        1.06143       -2.67394
C         -4.09766       -0.49425        1.60665
C         -5.43589       -0.18783        1.83405
C         -6.22611       -0.59522        2.89945
C         -5.62946       -1.49425        3.79138
C         -4.30658       -1.90099        3.54900
C         -3.51173       -1.38620        2.48415
S         -3.82336       -3.09836        4.69435
C         -5.32000       -3.05378        5.47329
C         -6.18384       -2.13322        4.94866
Br        -5.75826       -4.17089        6.90889
C         -5.96880        0.38335        0.62365
O         -7.00189       -0.04898        0.15028
C         -4.83668        1.04406       -0.06179
C         -4.92231        2.27363       -0.61014
N         -5.94504        3.22922       -0.74893
C         -7.32058        3.15232       -0.67578
S         -8.18766        2.31020        0.55193
C         -9.61575        2.29746       -0.33555
N        -10.67417        1.40171        0.03163
O        -11.39808        0.98472       -0.88240
O        -10.81075        1.14241        1.23523
C         -9.63488        3.39506       -1.15890
C         -8.29429        3.94210       -1.30389
C         -7.98224        5.14968       -2.00799
C         -8.76521        5.70066       -2.94423
C         -8.42846        6.89655       -3.68191
C         -9.21060        7.97901       -3.80065
C         -9.00282        9.03632       -4.76051
C        -10.04780        9.87150       -4.87738
C        -11.12746        9.58715       -3.95260
S        -10.64591        8.26807       -2.86335
C        -12.37071       10.10231       -3.94002
C        -13.04384       10.89631       -4.95299
C        -14.38730       10.79304       -4.88057
C        -14.83288        9.95934       -3.77727
S        -13.51412        9.72708       -2.67293
C        -16.05399        9.42555       -3.60077
N        -16.55741        8.52222       -2.65923
C        -15.76030        7.52956       -1.90335
C        -15.28356        6.38699       -2.81845
C        -15.30723        5.08336       -2.04471
N        -14.86028        3.88713       -2.76680
S        -15.62837        2.52535       -2.17737
N        -16.79779        3.36069       -1.31465
C        -16.77649        4.78436       -1.69603
C        -17.33861        5.77257       -0.68710
C        -16.56229        7.10373       -0.62771
N        -17.50522        8.18085       -0.33018
S        -17.78362        9.12962       -1.67917
C        -17.75178        8.71529        0.91468
C        -16.93161        9.33942        1.76987
C        -17.38597        9.83732        3.05442
C        -17.32513       11.11198        3.46119
C        -16.89604       12.33768        2.78919
C        -17.35276       12.79848        1.59959
C        -17.10366       14.13109        1.16116
N        -16.90362       15.22907        0.84320
C        -18.31614       12.07870        0.83546
N        -19.16860       11.55487        0.24912
C        -16.30293       13.20234        3.83658
C        -16.79138       12.76239        5.07049
C        -17.50770       11.47631        4.90717
O        -18.07109       10.84378        5.77403
C        -16.55782       13.43696        6.25883
C        -15.74601       14.59651        6.20542
C        -15.20033       14.99246        4.97217
C        -15.44867       14.29320        3.76999
S        -14.23363       16.41367        5.14157
C        -14.51426       16.48056        6.80320
C        -15.33434       15.48319        7.25839
Br       -13.76001       17.78452        7.91559
H         -7.26793       -0.29346        2.97794
H         -2.49828       -1.74542        2.37040
H         -7.18200       -1.94383        5.32881
H         -4.00734        2.71593       -1.01671
H         -5.56788        4.17520       -0.64677
H        -10.54620        3.81088       -1.57445
H         -7.06896        5.66453       -1.71843
H         -9.68854        5.21008       -3.24822
H         -7.52190        6.81500       -4.27546
H         -8.11070        9.09644       -5.36786
H        -10.07805       10.69408       -5.57736
H        -12.52655       11.42991       -5.73759
H        -15.07459       11.23635       -5.58896
H        -16.83657        9.67362       -4.31865
H        -14.87516        8.00174       -1.47686
H        -14.27576        6.59785       -3.19543
H        -15.92498        6.30940       -3.70758
H        -14.70023        5.17431       -1.13175
H        -13.84833        3.78382       -2.71342
H        -16.61353        3.25507       -0.31843
H        -17.38785        4.87027       -2.60794
H        -17.34716        5.34117        0.32244
H        -18.39670        5.94558       -0.92673
H        -15.82761        7.00486        0.18611
H        -18.80920        8.61807        1.15774
H        -15.89061        9.51988        1.50790
H        -17.71832        9.07085        3.75694
H        -16.98096       13.07992        7.19342
H        -14.99062       14.62678        2.84382
H        -15.62567       15.36647        8.29497
