102

C        -17.39858      -11.92119       -1.39662
C        -16.10389      -12.15343       -1.06364
C        -15.50801      -13.44521       -1.10203
N        -15.01132      -14.49432       -1.10667
C        -15.19656      -11.12889       -0.65927
N        -14.42812      -10.31410       -0.35420
C        -18.34988      -12.92233       -1.99095
C        -19.52396      -12.25977       -2.34953
C        -20.62679      -12.85945       -2.94808
C        -20.56768      -14.24508       -3.18386
C        -19.40161      -14.93589       -2.82406
C        -18.27561      -14.28965       -2.24296
S        -19.55569      -16.62242       -3.17372
C        -21.12513      -16.42424       -3.76373
C        -21.55261      -15.12472       -3.74573
Br       -22.18153      -17.84431       -4.37605
C        -19.47236      -10.84800       -1.98351
O        -20.38696      -10.07230       -2.17154
C        -18.14047      -10.62720       -1.32606
C        -17.82555       -9.46964       -0.72014
C        -18.61816       -8.24767       -0.67500
C        -18.26451       -7.09422       -0.08898
C        -19.04829       -5.88145       -0.14860
C        -18.37613       -4.79401        0.25835
C        -17.00196       -5.08071        0.63508
S        -16.77044       -6.82137        0.75754
C        -15.99801       -4.19288        0.74818
C        -16.09096       -2.75506        0.58897
C        -14.89967       -2.14805        0.47676
C        -13.77960       -3.06312        0.53325
S        -14.31513       -4.66723        0.95822
C        -12.51082       -2.72200        0.26181
C        -11.43717       -3.66234        0.24747
S        -10.58136       -3.92648        1.71967
C         -9.56510       -5.08908        1.01059
C         -9.80912       -5.26915       -0.33543
C         -9.00593       -6.18810       -1.20122
C        -10.91747       -4.44868       -0.77951
C        -11.39740       -4.49761       -2.13969
C        -11.90842       -3.48744       -2.85975
C        -12.27999       -3.62478       -4.25374
C        -12.32140       -2.56306       -5.07135
C        -12.71210       -2.62051       -6.46793
C        -12.76820       -1.57167       -7.30514
C        -13.29618       -1.62419       -8.64914
C        -13.51859       -0.41245       -9.18194
C        -13.16962        0.68678       -8.29563
S        -12.30955        0.06167       -6.89234
C        -13.53158        1.97718       -8.42785
C        -14.36122        2.53568       -9.47858
C        -14.82006        3.76625       -9.20507
C        -14.38563        4.27087       -7.91916
S        -13.17713        3.22168       -7.22761
C        -14.94222        5.32774       -7.30399
C        -14.62095        5.79889       -5.96658
C        -15.40468        6.47038       -5.10719
C        -16.78682        6.96903       -5.14394
C        -17.36900        7.69500       -6.12686
C        -18.70343        8.18064       -6.04064
N        -19.79969        8.55669       -5.98187
C        -16.65938        8.11882       -7.28803
N        -16.09787        8.47241       -8.24352
C        -17.33287        6.79037       -3.76397
C        -16.25907        6.56214       -2.89800
C        -15.00411        6.41691       -3.65751
O        -13.90757        6.20457       -3.18477
C        -16.39268        6.40182       -1.52292
C        -17.69818        6.43068       -0.98060
C        -18.78396        6.62289       -1.84955
C        -18.62300        6.80631       -3.24664
S        -20.28278        6.59182       -0.98870
C        -19.50639        6.30886        0.48239
C        -18.14214        6.25889        0.37655
Br       -20.42660        6.07246        2.09701
H        -21.50826      -12.27443       -3.19758
H        -17.41085      -14.89621       -2.00415
H        -22.52732      -14.80111       -4.09174
H        -16.88480       -9.38543       -0.18897
H        -19.56609       -8.24571       -1.20449
H        -20.05779       -5.85943       -0.53634
H        -18.79136       -3.79731        0.23000
H        -17.03108       -2.22522        0.54286
H        -14.77633       -1.08442        0.32699
H        -12.26341       -1.69640        0.00720
H         -8.81420       -5.57997        1.61429
H         -8.17613       -6.63712       -0.64541
H         -8.57908       -5.63636       -2.04574
H         -9.62990       -6.99880       -1.58987
H        -11.25197       -5.44737       -2.65225
H        -12.02477       -2.50030       -2.42239
H        -12.51622       -4.62095       -4.62015
H        -12.04965       -1.58846       -4.66975
H        -13.03869       -3.59365       -6.82917
H        -13.53972       -2.55414       -9.14435
H        -13.95967       -0.26902      -10.15777
H        -14.63085        1.99216      -10.37264
H        -15.49137        4.31527       -9.85129
H        -15.74955        5.81473       -7.83385
H        -13.65398        5.45688       -5.58694
H        -15.52155        6.22693       -0.89707
H        -19.50736        6.92858       -3.86220
H        -17.47828        6.08724        1.21562
