110

C         -5.22764        6.48627       -8.51527
C         -5.70305        5.40361       -9.18195
C         -5.53332        5.21991      -10.58526
N         -5.43489        5.08398      -11.73339
C         -6.47603        4.37363       -8.57137
N         -7.13226        3.53585       -8.10740
C         -4.40441        7.59315       -9.11434
C         -4.20694        8.57551       -8.14587
C         -3.56489        9.79014       -8.37303
C         -3.04620       10.03073       -9.66119
C         -3.17320        9.02529      -10.63004
C         -3.83751        7.79578      -10.37165
S         -2.43804        9.50758      -12.11974
C         -2.00445       11.01405      -11.49267
C         -2.37477       11.18662      -10.18661
Br        -1.11284       12.32326      -12.49201
C         -4.76870        8.17154       -6.85621
O         -4.67971        8.84430       -5.84941
C         -5.45483        6.84945       -7.08577
C         -6.19559        6.26149       -6.12996
C         -6.36587        6.69606       -4.76964
C         -5.42650        6.73973       -3.81429
C         -5.96924        7.25544       -2.52244
C         -7.26582        7.93682       -3.00277
C         -7.69909        7.12099       -4.23126
C         -8.18495        7.98143       -1.78084
C         -7.71183        6.84002       -0.85583
C         -8.90901        5.94742       -0.77649
C         -9.97418        6.45975       -1.39968
C         -9.68559        7.78115       -2.02896
C         -6.47381        6.24645       -1.50864
C         -6.04087        5.01261       -1.18527
C         -4.91889        4.34259       -1.74260
S         -5.14571        3.32782       -3.11476
C         -3.52774        2.70206       -3.09253
C         -2.80600        3.34658       -2.10135
C         -3.62283        4.22669       -1.28645
C         -3.16494        4.87188       -0.13102
C         -1.81239        4.59123        0.13074
F         -1.26556        5.13486        1.23055
C         -0.99541        3.76044       -0.68909
F          0.28888        3.58674       -0.33547
C         -1.45145        3.09064       -1.84092
C         -3.12453        1.68553       -4.01836
C         -3.95316        0.71159       -4.43206
C         -3.58807       -0.34723       -5.35432
C         -3.15963       -0.20234       -6.61834
C         -2.84178       -1.29986       -7.50101
C         -2.40572       -0.91213       -8.70884
C         -2.33521        0.53013       -8.87728
S         -2.94095        1.32897       -7.42571
C         -1.85913        1.20133       -9.94639
C         -1.33982        0.62716      -11.17116
C         -0.83122        1.52550      -12.02935
C         -0.87404        2.88951      -11.54035
S         -1.74229        2.96022      -10.02259
C         -0.28795        3.93861      -12.14929
C         -0.18101        5.27635      -11.59016
C          0.25621        6.44286      -12.09056
C          0.47804        7.51104      -11.04751
O          0.14625        7.50582       -9.87886
C          1.22558        8.58367      -11.70378
C          1.63707        9.75941      -11.09073
C          2.28246       10.72113      -11.87091
C          2.56038       10.43916      -13.23776
C          3.19294       11.42280      -14.01311
C          3.50720       12.66054      -13.45922
C          3.22697       12.94537      -12.13050
C          2.62807       11.97179      -11.33189
F          4.07686       13.59901      -14.22661
C          2.16514        9.20444      -13.80587
C          1.44236        8.28294      -13.05387
C          0.72901        6.99492      -13.37552
C          0.38768        6.60546      -14.62896
C         -0.51559        5.53696      -14.89307
N         -1.24094        4.67173      -15.16250
C          0.83139        7.27072      -15.80728
N          1.19954        7.80431      -16.77425
H         -3.48012       10.52615       -7.57787
H         -3.87835        7.06421      -11.16874
H         -2.18852       12.08902       -9.61630
H         -6.78320        5.37169       -6.32209
H         -4.38724        6.47577       -3.95253
H         -5.30349        7.98745       -2.05234
H         -7.05605        8.96596       -3.33176
H         -8.25800        7.74661       -4.93459
H         -8.29830        6.23946       -3.97916
H         -8.02960        8.94244       -1.27072
H         -7.45875        7.23602        0.13495
H         -8.92506        5.01370       -0.23070
H        -10.94699        5.98728       -1.42961
H        -10.27019        8.56193       -1.53063
H         -9.95781        7.78531       -3.08743
H         -6.57139        4.44952       -0.42112
H         -3.75663        5.50082        0.51932
H         -0.79978        2.44842       -2.41651
H         -2.09104        1.69186       -4.35835
H         -4.97225        0.63959       -4.05782
H         -3.74705       -1.34851       -4.95924
H         -2.94520       -2.33463       -7.20204
H         -2.11704       -1.61438       -9.47910
H         -1.35127       -0.43675      -11.37710
H         -0.39612        1.26500      -12.98293
H          0.22949        3.74971      -13.08445
H         -0.44056        5.29486      -10.52758
H          1.41478        9.92856      -10.04032
H          3.42258       11.25514      -15.06204
H          3.46773       13.92443      -11.72782
H          2.40624       12.20877      -10.29293
H          2.41483        9.02822      -14.84687
