108

C         -2.71426       -2.36563        0.47984
C         -1.35694       -2.35296        0.43400
C         -0.55159       -3.53331        0.51264
N          0.11061       -4.47723        0.57457
C         -0.59606       -1.15690        0.30968
N          0.04280       -0.19086        0.21587
C         -3.57198       -3.58999        0.64840
C         -4.91073       -3.18707        0.68966
C         -5.98723       -4.05221        0.85187
C         -5.71555       -5.42952        0.99232
C         -4.38104       -5.85293        0.95163
C         -3.29677       -4.94746        0.77366
S         -4.27048       -7.56721        1.15104
C         -5.94473       -7.72220        1.29999
C         -6.61267       -6.53320        1.18577
Br        -6.80409       -9.36016        1.59729
C         -5.03773       -1.73688        0.55077
O         -6.09532       -1.14358        0.54573
C         -3.64188       -1.19809        0.40932
C         -3.43305        0.12005        0.24655
C         -4.46787        1.15830        0.26804
N         -4.77110        1.64597        1.47969
C         -5.65748        2.65989        1.49865
C         -6.20572        3.19927        0.36115
C         -5.76393        2.67533       -0.84061
N         -4.88844        1.65006       -0.91385
C         -6.15500        3.37418       -2.07786
C         -5.43918        3.37622       -3.21783
C         -5.70515        4.19491       -4.37586
C         -4.73185        4.63632       -5.36387
C         -3.32958        4.84959       -5.39929
O         -2.60418        5.18497       -4.25590
C         -3.27536        6.07668       -3.34382
C         -3.64658        7.43802       -3.92707
C         -2.64082        4.78017       -6.63920
C         -3.33703        4.51652       -7.81740
C         -4.74743        4.56701       -7.78742
C         -5.40587        4.78692       -6.57469
S         -7.00752        5.35339       -6.24311
C         -6.95506        4.69368       -4.67546
O         -5.41770        4.47163       -8.99811
C         -6.50992        3.54306       -9.00719
C         -6.05401        2.14212       -9.35946
C         -2.43763        4.21787       -8.90093
C         -1.10099        4.44730       -8.63298
S         -0.95451        4.99341       -6.99357
C          0.07661        4.30760       -9.45165
C          0.13737        4.46678      -10.78863
C          1.35864        4.41683      -11.57512
C          1.22353        4.89112      -12.82710
C         -0.12395        5.36127      -13.11848
S         -1.20371        4.86934      -11.82762
C         -0.51644        6.16058      -14.12773
C          0.31057        6.71958      -15.18006
C         -0.25267        7.77281      -15.79475
C         -1.55481        8.11747      -15.25823
S         -2.14506        6.84438      -14.23333
C         -2.14786        9.31035      -15.41831
C         -3.37549        9.76380      -14.77306
C         -3.62861       11.03557      -14.42397
C         -2.77272       12.22133      -14.51982
C         -1.50612       12.29658      -14.03866
C         -0.67080       13.43431      -14.21849
N          0.01445       14.34531      -14.41594
C         -1.02291       11.31413      -13.11664
N         -0.67811       10.59074      -12.28490
C         -3.65995       13.41269      -14.46269
C         -4.87881       12.98602      -13.92077
C         -4.95329       11.50591      -13.90620
O         -5.90161       10.83534      -13.56061
C         -5.81356       13.86307      -13.38813
C         -5.49229       15.24327      -13.39288
C         -4.32486       15.66649      -14.04959
C         -3.41171       14.76552      -14.64195
S         -4.14547       17.38256      -13.96743
C         -5.50412       17.53684      -12.98019
C         -6.16116       16.35374      -12.76932
Br        -6.04682       19.16964      -12.24027
H         -7.00422       -3.66921        0.87852
H         -2.29747       -5.36283        0.75427
H         -7.69000       -6.43521        1.24804
H         -2.45563        0.56633        0.13333
H         -5.89191        3.05896        2.47776
H         -6.88775        4.03752        0.41860
H         -7.02528        4.01755       -1.98237
H         -4.57233        2.71599       -3.28409
H         -2.59798        6.23169       -2.49648
H         -4.15033        5.60243       -2.89894
H         -3.15107        8.23828       -3.36704
H         -4.72452        7.61392       -3.82153
H         -3.38144        7.54440       -4.98102
H         -7.86043        4.66761       -4.08871
H         -7.22034        3.90091       -9.75965
H         -7.06210        3.49283       -8.06902
H         -5.59250        2.12346      -10.34978
H         -6.90925        1.45827       -9.35237
H         -5.31457        1.77794       -8.64008
H         -2.80535        3.86057       -9.85349
H          1.00839        4.10780       -8.92381
H          2.30200        4.07656      -11.16735
H          2.03992        4.97091      -13.52670
H          1.30126        6.35420      -15.40997
H          0.23599        8.35054      -16.56661
H         -1.64031       10.04388      -16.04160
H         -4.13542        9.00624      -14.57358
H         -6.71070       13.48894      -12.90187
H         -2.51025       15.14664      -15.11050
H         -7.05521       16.26088      -12.16477
