128

C         -6.22731        6.30541       -4.13048
C         -4.93891        6.03340       -4.37362
C         -4.31602        6.30630       -5.62946
N         -3.81790        6.53137       -6.65318
C         -4.07764        5.51144       -3.36523
N         -3.38883        5.07252       -2.54097
C         -7.19546        6.98606       -5.04229
C         -8.20880        7.55714       -4.26308
C         -9.33425        8.17050       -4.79658
C         -9.48402        8.14267       -6.20346
C         -8.46152        7.58076       -6.98574
C         -7.29247        7.01373       -6.42495
S         -8.85457        7.64313       -8.66716
C        -10.36394        8.32686       -8.35237
C        -10.59048        8.55780       -7.02196
Br       -11.60947        8.71708       -9.69533
C         -8.00163        7.23850       -2.83676
O         -8.56271        7.75813       -1.89769
C         -6.94368        6.17077       -2.84169
C         -6.90628        5.14269       -1.97165
C         -7.75868        4.94195       -0.83509
C         -7.36075        5.41796        0.39501
S         -8.51828        5.11811        1.59868
C         -9.59384        4.39711        0.48231
C         -9.06025        4.28320       -0.79529
C         -9.85682        3.57682       -1.75434
C         -9.21679        2.96218       -2.99670
C         -8.73053        1.53671       -2.72000
C        -11.27642        3.33729       -1.48196
C        -12.17462        2.96029       -2.65660
C        -12.31910        1.46350       -2.87804
C        -11.79471        3.49000       -0.14337
C        -13.10958        3.31655        0.49805
C        -13.03686        3.45507        1.87080
S        -11.50459        3.94001        2.40093
C        -10.88738        3.94813        0.81064
C        -14.37135        3.02375       -0.13586
C        -15.59348        3.39165        0.31425
C        -16.83424        3.23002       -0.40546
C        -16.82488        3.33423       -1.78328
S        -18.35589        3.15021       -2.46948
C        -19.08764        2.94813       -0.94018
C        -18.19328        3.02813        0.12576
C        -18.76223        2.89048        1.44789
C        -17.87697        3.02057        2.68361
C        -17.73405        4.46095        3.15987
C        -20.19950        2.63054        1.61743
C        -20.78755        2.43582        3.01374
C        -21.33699        3.70886        3.64175
C        -21.05988        2.54274        0.46593
C        -22.48504        2.28072        0.27908
C        -22.87778        2.32848       -1.04129
S        -21.57574        2.64478       -2.07838
C        -20.46688        2.72400       -0.77671
C        -23.46169        2.01662        1.29187
C        -23.83184        0.78337        1.67168
C        -24.77645        0.54146        2.74386
C        -25.86472       -0.23695        2.66531
C        -26.71360       -0.57860        3.78342
C        -27.55129       -1.59436        3.52168
C        -27.40360       -2.12422        2.17420
S        -26.41057       -1.02760        1.21299
C        -27.78460       -3.34039        1.74128
C        -28.42416       -4.37571        2.53199
C        -28.25107       -5.60463        2.02123
C        -27.48732       -5.61055        0.78475
S        -27.32608       -3.99515        0.16582
C        -26.92963       -6.71231        0.25829
C        -26.08309       -6.72360       -0.89203
S        -26.77505       -6.99556       -2.46013
C        -24.70829       -6.65449       -1.01931
C        -23.51729       -6.52616       -0.13804
N        -23.14684       -7.79665        0.46963
C        -24.15086       -8.41104        1.32228
C        -24.53871       -7.56373        2.52424
O        -22.41359       -6.13738       -1.01135
C        -22.80461       -6.40710       -2.38316
O        -22.08153       -7.52596       -2.85496
C        -24.26147       -6.64184       -2.35516
C        -25.26045       -6.84843       -3.26247
H        -10.11104        8.56729       -4.14820
H         -6.56129        6.55195       -7.07948
H        -11.50916        8.97758       -6.63019
H         -6.20485        4.32928       -2.13842
H         -6.44806        5.94115        0.64676
H         -8.36276        3.55308       -3.32872
H         -9.89031        2.95938       -3.85513
H         -7.91640        1.52448       -1.98871
H         -8.36544        1.07674       -3.64447
H         -9.51762        0.89233       -2.31759
H        -11.82271        3.44309       -3.57509
H        -13.15905        3.41572       -2.52109
H        -11.38016        1.00912       -3.19474
H        -13.04032        1.26654       -3.67696
H        -12.65132        0.94732       -1.97290
H        -13.82161        3.31988        2.60226
H        -14.32470        2.49426       -1.07915
H        -15.65719        3.91917        1.25911
H        -15.98225        3.52640       -2.43310
H        -16.88866        2.60711        2.46768
H        -18.21921        2.39182        3.50687
H        -17.32673        5.11167        2.38140
H        -17.07242        4.50634        4.03053
H        -18.68703        4.89597        3.45723
H        -20.08374        1.95298        3.69320
H        -21.59219        1.70019        2.96470
H        -20.55027        4.42227        3.87941
H        -21.84139        3.47407        4.58468
H        -22.05057        4.21744        2.98730
H        -23.86954        2.18737       -1.45101
H        -23.93042        2.88294        1.75166
H        -23.38859       -0.09517        1.20235
H        -24.50481        0.97984        3.70157
H        -26.63083       -0.09554        4.74744
H        -28.21517       -2.01952        4.26131
H        -28.92809       -4.18402        3.46946
H        -28.59879       -6.50965        2.50449
H        -27.06633       -7.66422        0.76437
H        -23.62323       -5.72949        0.60428
H        -22.28237       -7.64891        0.98317
H        -23.75685       -9.36828        1.68047
H        -25.03081       -8.68846        0.73584
H        -23.66770       -7.34915        3.14938
H        -25.27820       -8.09572        3.13030
H        -24.98191       -6.60706        2.23518
H        -22.54549       -5.53540       -2.99284
H        -21.16207       -7.31662       -2.62521
H        -25.19186       -6.92597       -4.33798
