116

C         -8.42405       -2.68197       -6.07404
C         -7.84171       -3.89682       -5.94957
C         -8.02559       -4.93602       -6.90900
N         -8.19991       -5.77391       -7.69607
C         -6.94208       -4.18775       -4.88324
N         -6.21634       -4.41036       -4.00502
C         -9.27175       -2.20153       -7.20201
C         -9.23040       -0.80270       -7.20889
C        -10.00413       -0.00742       -8.04122
C        -10.92739       -0.66155       -8.88647
C        -10.95978       -2.06600       -8.90119
C        -10.12478       -2.86152       -8.07600
S        -12.15695       -2.64585      -10.00553
C        -12.65998       -1.07996      -10.38291
C        -11.94099       -0.10809       -9.74139
Br       -14.07324       -0.71082      -11.55521
C         -8.42047       -0.30417       -6.08544
O         -8.02495        0.83040       -5.93573
C         -8.21876       -1.50398       -5.21167
C         -8.22885       -1.43214       -3.86859
C         -8.29169       -0.23331       -3.08159
C         -7.11822        0.38136       -2.70135
S         -7.39664        1.74926       -1.73919
C         -9.09184        1.55784       -1.83672
C         -9.48541        0.46920       -2.60828
C        -10.90396        0.27430       -2.78037
C        -11.43641       -0.95069       -3.51342
C        -11.44741       -2.19838       -2.63856
C        -11.84677        1.26160       -2.25992
C        -13.31014        1.20853       -2.68881
C        -14.20593        0.34527       -1.81684
C        -11.38479        2.31287       -1.40053
C        -12.05402        3.36966       -0.65816
C        -11.18580        4.13345        0.09395
S         -9.56773        3.67672       -0.14219
C        -10.01194        2.41455       -1.20575
C        -13.46468        3.61472       -0.57902
C        -14.13762        4.43403       -1.40616
C        -15.53470        4.73774       -1.27910
S        -16.39320        5.00979       -2.75994
C        -17.85753        5.32941       -1.96458
C        -17.75317        5.24800       -0.59251
C        -18.89864        5.52431        0.33375
C        -16.40063        4.90582       -0.19208
C        -16.04343        4.77092        1.19775
C        -14.87093        5.12454        1.75292
C        -14.51479        4.87838        3.12737
C        -15.23764        5.35277        4.14478
C        -14.93629        5.11582        5.53928
C        -15.88279        4.91093        6.46596
C        -15.66940        4.80280        7.88759
C        -16.81029        4.79333        8.59763
C        -18.00666        4.90101        7.77669
S        -17.57412        4.74156        6.08046
C        -19.26375        5.17834        8.17233
C        -19.72835        5.41991        9.52443
C        -20.99030        5.87775        9.58836
C        -21.62851        6.01481        8.29534
S        -20.59013        5.42076        7.03122
C        -22.84176        6.54939        8.07199
C        -23.45827        6.67185        6.75785
C        -23.84332        7.79695        6.13657
C        -23.80267        9.21146        6.52040
C        -24.26625        9.75854        7.66821
C        -24.20658       11.15309        7.95517
N        -24.12609       12.28413        8.20241
C        -25.01426        8.99255        8.61186
N        -25.67179        8.39165        9.35272
C        -23.61138        9.99110        5.26747
C        -23.94680        9.15891        4.19214
C        -24.12390        7.76152        4.65551
O        -24.40473        6.80956        3.97290
C        -24.10590        9.62446        2.89249
C        -23.91160       11.00902        2.66039
C        -23.48536       11.81809        3.72565
C        -23.29171       11.31906        5.03383
S        -23.27851       13.45869        3.22844
C        -23.80014       13.11342        1.66275
C        -24.09414       11.78988        1.46552
Br       -23.95670       14.42150        0.33146
H         -9.96153        1.07615       -7.96957
H        -10.23593       -3.94046       -8.09531
H        -12.13053        0.95363       -9.84649
H         -8.26131       -2.34802       -3.28342
H         -6.10307        0.09786       -2.94475
H        -10.83588       -1.12276       -4.40728
H        -12.44329       -0.80851       -3.90698
H        -10.46843       -2.40690       -2.19935
H        -11.74440       -3.06710       -3.23544
H        -12.15887       -2.10304       -1.81272
H        -13.38890        0.91214       -3.73885
H        -13.71663        2.22008       -2.71783
H        -13.89635       -0.70121       -1.82682
H        -15.23505        0.38629       -2.19033
H        -14.21235        0.68343       -0.77641
H        -11.41435        4.94721        0.76972
H        -13.97578        3.11352        0.23764
H        -13.60746        4.87357       -2.25027
H        -18.73742        5.57873       -2.54293
H        -19.81368        5.75991       -0.22115
H        -18.67015        6.38102        0.97640
H        -19.10713        4.65498        0.96492
H        -16.81060        4.34728        1.84643
H        -14.08618        5.57193        1.15259
H        -13.62432        4.27807        3.29852
H        -16.12428        5.95006        3.93122
H        -13.88890        5.16861        5.82601
H        -14.67935        4.77892        8.32395
H        -16.83297        4.75400        9.67689
H        -19.10700        5.26731       10.39437
H        -21.48750        6.13291       10.51402
H        -23.42240        6.88300        8.92477
H        -23.47089        5.73966        6.18374
H        -24.41184        8.95241        2.09537
H        -22.95834       11.99607        5.81259
H        -24.44101       11.38552        0.52238
