97

C         -5.88164       -2.67233       -1.31775
C         -5.18839       -3.22345       -0.29420
C         -4.64942       -4.53970       -0.35548
N         -4.19901       -5.60729       -0.41731
C         -4.88750       -2.50168        0.89722
N         -4.65684       -1.91767        1.87263
C         -6.21426       -3.30690       -2.62872
C         -6.58302       -2.30473       -3.53218
C         -7.05539       -2.54686       -4.81719
C         -7.20069       -3.89547       -5.21465
C         -6.82148       -4.90739       -4.31833
C         -6.31498       -4.63493       -3.02240
S         -7.09106       -6.47363       -4.99615
C         -7.74786       -5.82032       -6.40575
C         -7.74083       -4.45115       -6.42616
Br        -8.43162       -6.87221       -7.79646
C         -6.53570       -0.98820       -2.88170
O         -6.66584        0.09130       -3.42228
C         -6.32456       -1.27479       -1.42460
C         -6.76626       -0.39587       -0.51162
N         -7.28560        0.87073       -0.76656
C         -8.63064        1.07959       -0.99388
S         -9.85891        0.09912       -0.26653
C        -11.06655        0.83306       -1.18359
N        -12.40636        0.35305       -1.09514
O        -13.28297        1.20214       -0.89341
O        -12.58631       -0.85866       -1.27283
C        -10.62176        1.87717       -1.95188
C         -9.20118        2.03636       -1.83882
C         -8.44402        3.02287       -2.56978
C         -8.91433        4.21587       -2.97347
C         -8.11250        5.18826       -3.68814
C         -8.28616        6.52684       -3.65083
C         -9.28858        7.22754       -2.76509
C         -7.37343        7.44455       -4.43711
N         -8.14776        8.24949       -5.35918
C         -8.67356        9.48828       -5.10036
C         -9.39940       10.25442       -5.92379
C         -9.92017       11.54237       -5.50787
C        -10.65536       12.39760       -6.23419
C        -11.14339       13.65400       -5.71730
C        -11.86901       14.35481       -6.59815
C        -12.00477       13.71419       -7.89621
S        -11.16097       12.16290       -7.88734
C        -12.65297       14.21975       -8.96444
C        -13.33313       15.50048       -9.02310
C        -13.81642       15.81062      -10.23417
C        -13.57565       14.79469      -11.23605
S        -12.77496       13.41126      -10.52508
C        -13.91965       14.92391      -12.53025
C        -13.74767       13.91642      -13.56089
C        -14.05040       13.91312      -14.86817
C        -14.64259       14.82903      -15.86361
C        -15.62949       15.73951      -15.68735
C        -16.16987       16.52802      -16.74599
N        -16.60573       17.18310      -17.59673
C        -16.29901       15.92762      -14.44208
N        -16.87044       16.11225      -13.45341
C        -14.15892       14.35793      -17.21045
C        -13.56660       13.10413      -17.04926
C        -13.50322       12.73734      -15.63337
O        -13.05937       11.69285      -15.20187
C        -13.09643       12.31297      -18.09224
C        -13.24848       12.80371      -19.40557
C        -13.80329       14.07991      -19.58347
C        -14.23823       14.88470      -18.49661
S        -13.88905       14.48766      -21.26161
C        -13.25648       12.99263      -21.72414
C        -12.92869       12.19011      -20.66483
Br       -13.03034       12.48222      -23.51227
H         -7.36524       -1.72763       -5.46066
H         -6.08557       -5.46729       -2.36678
H         -8.12533       -3.85881       -7.24803
H         -6.82435       -0.62797        0.54924
H         -6.73373        1.29072       -1.52141
H        -11.26681        2.46250       -2.59681
H         -7.40133        2.79557       -2.78232
H         -9.94122        4.49796       -2.75885
H         -7.30787        4.77700       -4.29824
H         -9.78742        6.56066       -2.05762
H        -10.06801        7.70811       -3.36337
H         -8.78595        7.99354       -2.16374
H         -6.63782        6.87339       -5.01527
H         -6.80027        8.08046       -3.75118
H         -8.39409        7.81996       -6.24603
H         -8.45606        9.83169       -4.09010
H         -9.61057        9.90814       -6.93137
H         -9.68154       11.82331       -4.48266
H        -10.94114       13.98554       -4.70781
H        -12.30978       15.31123       -6.35837
H        -13.44068       16.15278       -8.16873
H        -14.35391       16.72449      -10.44826
H        -14.34493       15.87460      -12.82427
H        -13.24745       13.01595      -13.19206
H        -12.65422       11.33982      -17.89485
H        -14.64044       15.86680      -18.71531
H        -12.50224       11.19900      -20.76581
