121

C         -1.61577       -0.33363        4.02762
C         -0.65909       -0.47155        4.97710
C         -0.15733       -1.74147        5.37770
N          0.24896       -2.77565        5.70816
C         -0.02962        0.64832        5.59784
N          0.47703        1.56192        6.10491
C         -2.22560       -1.41861        3.19592
C         -2.79700       -0.82471        2.06623
C         -3.48693       -1.51797        1.08063
C         -3.62261       -2.91304        1.23421
C         -3.04897       -3.52746        2.35919
C         -2.34864       -2.79564        3.35818
S         -3.32823       -5.23555        2.33215
C         -4.19286       -5.14012        0.88462
C         -4.29725       -3.86581        0.39789
Br        -4.93836       -6.62935        0.02644
C         -2.63242        0.63424        2.10038
O         -2.84390        1.38126        1.16988
C         -2.12535        0.94192        3.47839
C         -2.33348        2.11245        4.10304
C         -3.00191        3.27622        3.51492
C         -4.38570        3.43938        3.66703
C         -4.98210        4.54852        3.08353
C         -4.21816        5.47622        2.34079
C         -2.85363        5.32798        2.20512
C         -2.24198        4.22751        2.80847
C         -5.09131        6.50021        1.81741
C         -6.41122        6.24675        2.24837
C         -6.45274        4.97797        3.10499
C         -7.37384        3.89116        2.48057
C         -6.95989        3.37210        1.10126
C         -6.92608        5.30627        4.55069
C         -6.04047        6.28192        5.33060
C         -7.44994        7.08692        1.88801
C         -7.15364        8.16647        1.05266
C         -5.83867        8.42144        0.62191
C         -4.79510        7.58543        1.01033
C         -8.23572        9.00458        0.56916
C         -8.55205       10.16214        1.16125
C         -9.59412       10.98718        0.65615
S        -10.51252       11.86178        1.81323
C        -11.59801       12.53054        0.64919
C        -11.19157       12.17039       -0.62364
C        -10.04676       11.27726       -0.61880
C         -9.45607       10.77736       -1.79042
C        -10.10618       11.20642       -2.95717
F         -9.63184       10.75752       -4.13077
C        -11.22437       12.08118       -2.96370
F        -11.74118       12.43577       -4.15136
C        -11.82211       12.60887       -1.80120
C        -12.65997       13.37806        1.08486
C        -13.30656       13.18944        2.25079
C        -14.36941       14.07564        2.70802
C        -14.66391       14.33411        4.05966
C        -14.00464       13.77906        5.13445
S        -14.61557       14.35626        6.63366
C        -15.77607       15.35284        5.85693
C        -15.71826       15.23709        4.48651
C        -16.58837       15.92106        3.61418
N        -17.59960       16.81404        3.98484
C        -16.28914       15.63965        2.24911
C        -15.24243       14.75771        1.83389
C        -17.06696       16.25068        1.15754
C        -16.68066       17.39326        0.57041
C        -17.43112       18.02405       -0.49174
C        -17.73389       17.51261       -1.69355
C        -17.42261       16.24207       -2.35814
C        -16.21662       15.62776       -2.40450
C        -15.99502       14.41211       -3.11802
N        -15.80112       13.41446       -3.66973
C        -15.04428       16.21274       -1.83899
N        -14.05976       16.66762       -1.42404
C        -18.58137       15.93908       -3.24564
C        -19.33472       17.11223       -3.38059
C        -18.82268       18.16707       -2.48356
O        -19.25538       19.29397       -2.38495
C        -20.44027       17.22824       -4.21379
C        -20.82212       16.08807       -4.95578
C        -20.09864       14.89623       -4.78845
C        -18.98069       14.79527       -3.92395
S        -20.75194       13.62963       -5.76526
C        -21.93290       14.64826       -6.40838
C        -21.88813       15.92015       -5.90414
Br       -23.18125       14.08888       -7.68799
H         -3.92564       -0.99192        0.23694
H         -1.95521       -3.33054        4.21609
H         -4.82231       -3.60578       -0.51384
H         -2.07025        2.26946        5.14481
H         -4.98254        2.72174        4.22019
H         -2.26403        6.04336        1.64262
H         -1.16594        4.11182        2.71556
H         -8.40073        4.27256        2.40279
H         -7.41980        3.02603        3.15486
H         -6.99923        4.15911        0.34262
H         -7.64039        2.57336        0.78654
H         -5.95147        2.94735        1.10834
H         -6.98931        4.37845        5.13373
H         -7.94277        5.72122        4.52396
H         -5.01986        5.90314        5.44132
H         -6.44120        6.42690        6.33915
H         -5.99431        7.26317        4.84891
H         -8.46537        6.90708        2.22666
H         -5.62798        9.26365       -0.03422
H         -3.78410        7.77680        0.66872
H         -8.75385        8.61599       -0.29924
H         -8.04454       10.46575        2.07593
H         -8.59006       10.13497       -1.85291
H        -12.66941       13.27645       -1.86363
H        -12.92342       14.20226        0.42762
H        -13.05640       12.36425        2.91085
H        -13.19339       13.06478        5.15182
H        -16.43235       15.95966        6.46325
H        -17.74409       16.90033        4.98298
H        -18.46758       16.64510        3.48548
H        -15.11437       14.60409        0.76379
H        -17.96107       15.71151        0.86176
H        -15.80440       17.93272        0.93037
H        -17.82978       19.00261       -0.21533
H        -20.98572       18.16467       -4.28578
H        -18.47323       13.84157       -3.82928
H        -22.57141       16.70924       -6.19413
