89

C          0.71220       -0.51295        2.24897
C          1.30419        0.64135        2.64530
C          2.37484        0.67512        3.58779
N          3.24124        0.70553        4.35414
C          0.94138        1.91164        2.09886
N          0.63548        2.93867        1.66432
C          1.10622       -1.89287        2.65739
C          0.59175       -2.78756        1.71494
C          0.68648       -4.16948        1.82115
C          1.31199       -4.69535        2.97297
C          1.85136       -3.80512        3.91505
C          1.76987       -2.39650        3.77136
S          2.57153       -4.65934        5.23402
C          2.11876       -6.15469        4.59662
C          1.46702       -6.05970        3.39665
Br         2.46623       -7.78293        5.45479
C         -0.17459       -2.07436        0.68211
O         -0.57788       -2.56624       -0.34919
C         -0.32288       -0.67290        1.20257
C         -1.35831        0.13206        0.90914
C         -2.37263       -0.17368       -0.04674
S         -2.13048        0.30727       -1.68259
C         -3.65559       -0.28094       -2.16397
C         -4.38113       -0.81673       -1.12004
C         -5.75905       -1.38307       -1.25597
C         -3.62444       -0.75804        0.10402
C         -4.09369       -1.34663        1.32047
C         -4.86814       -0.75334        2.24301
C         -5.40631       -1.40989        3.42387
C         -5.25258       -2.70733        3.74086
C         -5.78225       -3.29932        4.94731
C         -5.68628       -4.59048        5.32928
C         -5.00450       -5.70012        4.56923
C         -6.26885       -5.01123        6.65902
N         -7.65508       -5.36546        6.46663
C         -8.49718       -5.81897        7.44703
C         -9.75748       -6.22617        7.26748
C        -10.57814       -6.77983        8.32807
C        -11.61317       -7.61211        8.13641
C        -12.43893       -8.17454        9.17907
C        -13.43259       -8.95268        8.72044
C        -13.47053       -9.06129        7.27167
S        -12.10193       -8.20301        6.57272
C        -14.40996       -9.66007        6.51586
C        -15.60768      -10.33821        6.97209
C        -16.45730      -10.65956        5.98316
C        -16.00267      -10.24505        4.67258
S        -14.36994       -9.64109        4.75276
C        -16.74776      -10.27217        3.55613
C        -16.29901       -9.72839        2.32995
S        -15.55909      -10.62533        1.04762
C        -15.33228       -9.21466        0.04439
C        -15.83042       -8.15252        0.71229
C        -16.35207       -8.43251        1.95466
O        -16.84679       -7.38302        2.67176
C        -16.58250       -6.36179        1.77650
N        -16.94322       -5.04643        2.22009
O        -16.73959       -4.12463        1.41764
O        -17.42495       -4.92628        3.35312
C        -15.99365       -6.76477        0.57008
H          0.23463       -4.81422        1.07213
H          2.17459       -1.76742        4.55633
H          1.09466       -6.91259        2.84173
H         -1.50015        1.07526        1.42572
H         -3.95430       -0.20143       -3.19998
H         -6.08684       -1.39130       -2.30052
H         -6.47072       -0.77699       -0.68530
H         -5.80042       -2.41183       -0.88311
H         -3.84167       -2.39741        1.41957
H         -5.14799        0.29385        2.12401
H         -5.98823       -0.76108        4.07903
H         -4.69672       -3.36540        3.08462
H         -6.31848       -2.61336        5.60436
H         -4.37975       -5.35062        3.74398
H         -5.74911       -6.39022        4.15865
H         -4.34466       -6.26890        5.23418
H         -6.19880       -4.18967        7.38212
H         -5.70567       -5.85150        7.08135
H         -7.97797       -5.46928        5.50788
H         -8.03592       -5.86708        8.43105
H        -10.18899       -6.16552        6.27064
H        -10.30561       -6.49548        9.34161
H        -12.26636       -7.97196       10.22729
H        -14.14886       -9.43805        9.36776
H        -15.81250      -10.53577        8.01478
H        -17.41381      -11.13779        6.14332
H        -17.76290      -10.65558        3.58706
H        -14.85711       -9.28280       -0.92427
H        -15.71938       -6.12218       -0.25522
