83

C         -1.79900        1.04568       -0.82840
C         -1.65558       -0.27305       -0.57549
C         -0.41409       -0.96815       -0.76902
N          0.58011       -1.54185       -0.94771
C         -2.72406       -1.12551       -0.16337
N         -3.57307       -1.83999        0.18691
C         -0.71071        1.97057       -1.28757
C         -1.28569        3.15467       -1.74674
C         -0.57425        4.22467       -2.27589
C          0.82903        4.10614       -2.33873
C          1.42756        2.94132       -1.83579
C          0.67737        1.87112       -1.28620
S          3.14658        3.01098       -1.98563
C          3.08372        4.52586       -2.72523
C          1.81315        5.02134       -2.84575
Br         4.60824        5.43605       -3.31997
C         -2.73292        3.14396       -1.54100
O         -3.48742        4.02957       -1.88745
C         -3.04608        1.86078       -0.83719
C         -4.24271        1.62520       -0.28434
C         -5.37485        2.53979       -0.19886
C         -6.63710        2.16473        0.05405
C         -7.77646        3.04879        0.11971
C         -8.94981        2.40102        0.19562
C         -8.81727        0.95261        0.21621
S         -7.11987        0.50882        0.26116
C         -9.79753        0.03101        0.17626
C        -11.22520        0.26913        0.10339
C        -11.95748       -0.85203        0.02106
C        -11.16937       -2.06530        0.02000
S         -9.47539       -1.70468        0.16619
C        -11.67701       -3.30638       -0.09372
C        -10.86843       -4.46580       -0.12853
S        -10.41525       -5.40168        1.23615
C         -9.41440       -6.53484        0.32133
C         -9.57801       -6.17852       -0.98528
C        -10.36406       -5.06885       -1.21831
O        -10.57020       -4.69620       -2.51269
C         -9.83570       -5.67878       -3.13975
N         -9.86540       -5.62566       -4.57686
O         -9.20579       -6.49377       -5.16594
O        -10.54967       -4.74684       -5.11353
C         -9.19924       -6.58727       -2.28419
C         -8.69208       -7.63274        0.90798
C         -8.06113       -7.64917        2.09798
C         -7.24133       -8.74555        2.59414
C         -6.41147       -8.39169        3.59454
C         -6.51246       -6.98521        3.93661
S         -7.98332       -6.33394        3.22941
C         -5.61481       -6.20054        4.56073
C         -4.32280       -6.55532        5.11036
C         -3.53678       -5.49087        5.35867
C         -4.14633       -4.22167        5.00630
S         -5.82946       -4.46059        4.66249
C         -3.47547       -3.06016        4.89541
C         -4.00817       -1.82328        4.40425
S         -2.90990       -0.68343        3.70586
C         -4.14218        0.44871        3.37253
C         -3.79536        1.71296        2.78535
O         -2.74033        2.04292        2.25989
O         -4.83495        2.57704        2.82751
C         -5.38101       -0.03397        3.72537
C         -5.29477       -1.30713        4.35139
H         -1.09129        5.11584       -2.62100
H          1.21264        1.02171       -0.87871
H          1.57806        5.98435       -3.28297
H         -4.40361        0.69139        0.24349
H         -5.17216        3.60128       -0.32449
H         -7.68208        4.12552        0.07167
H         -9.90347        2.90813        0.21283
H        -11.65731        1.25877        0.10074
H        -13.03642       -0.86024       -0.05173
H        -12.74857       -3.45002       -0.18563
H         -8.57972       -7.42031       -2.58629
H         -8.58335       -8.50814        0.27115
H         -7.27489       -9.73899        2.16763
H         -5.70373       -9.06123        4.06204
H         -4.01647       -7.57590        5.27926
H         -2.52752       -5.56131        5.74129
H         -2.41067       -3.06874        5.11882
H         -4.52383        3.34496        2.30883
H         -6.31019        0.50163        3.56326
H         -6.17282       -1.81091        4.73077
