98

C         -3.59139        1.11612        3.34883
C         -4.18565        0.87189        4.54699
C         -3.46248        0.47039        5.70769
N         -2.88575        0.14034        6.65564
C         -5.58128        1.05762        4.78309
N         -6.71194        1.21580        4.98759
C         -2.12000        1.14044        3.07983
C         -1.89765        1.78727        1.85870
C         -0.62902        2.06016        1.35357
C          0.48874        1.70061        2.14512
C          0.26671        1.01962        3.35095
C         -1.02860        0.69104        3.81471
S          1.75144        0.68712        4.16926
C          2.64873        1.50182        2.99665
C          1.89258        1.94242        1.94256
Br         4.49444        1.78677        3.13989
C         -3.17860        2.13751        1.21235
O         -3.32893        2.71876        0.15661
C         -4.24408        1.60206        2.11717
C         -5.52305        1.50434        1.72782
N         -6.17333        1.94391        0.58973
C         -7.49737        1.76074        0.27099
S         -8.56978        0.83114        1.27949
C         -9.85087        1.00033        0.21228
N        -11.08634        0.35211        0.50332
O        -12.09979        1.06106        0.47378
O        -11.04961       -0.86593        0.71922
C         -9.56640        1.79311       -0.86619
C         -8.20136        2.24642       -0.83524
C         -7.61945        3.06815       -1.86345
C         -8.30726        3.91913       -2.65077
C         -7.72705        4.74452       -3.73161
C         -6.64049        4.37125       -4.55326
C         -6.07971        5.25730       -5.54015
N         -5.03287        4.86341       -6.29464
C         -4.57083        3.59807       -6.14939
C         -5.13924        2.72952       -5.25625
N         -6.15015        3.11793       -4.44150
C         -4.77219        1.34580       -5.17489
N         -4.49196        0.22222       -5.14627
C         -3.49127        3.22580       -7.01429
N         -2.62463        2.90394       -7.70819
C         -6.62804        6.51758       -5.80376
C         -7.82007        6.87513       -5.12008
C         -8.37820        5.97135       -4.05513
N         -9.51091        6.45286       -3.51138
S         -9.85498        7.87807       -4.28142
N         -8.57331        7.96989       -5.32489
C         -6.08451        7.43232       -6.81646
C         -5.18049        8.39143       -6.57769
C         -4.77416        9.37595       -7.55540
C         -4.35336       10.51533       -6.98560
C         -4.44381       10.46929       -5.53344
S         -4.50449        8.78154       -5.01375
C         -4.79288       11.50031       -4.74187
C         -5.20704       12.80583       -5.22331
C         -6.09579       13.39575       -4.41025
C         -6.36060       12.63500       -3.20554
S         -5.19640       11.34495       -3.03590
C         -7.40435       12.86085       -2.39171
C         -7.71366       12.14542       -1.17016
C         -8.71384       12.30163       -0.28866
C         -9.89360       13.17423       -0.12367
C        -10.06698       14.45173       -0.54011
C        -11.28769       15.16998       -0.39724
N        -12.28644       15.75493       -0.31488
C         -9.02029       15.23976       -1.10364
N         -8.19674       15.92294       -1.55153
C        -10.80728       12.47343        0.84685
C        -10.13721       11.36379        1.36769
C         -8.82331       11.20813        0.74018
O         -8.01744       10.34072        1.00945
C        -10.63328       10.54194        2.37660
C        -11.87583       10.88608        2.94951
C        -12.56117       11.99737        2.43946
C        -12.06330       12.77739        1.36323
S        -14.02690       12.27906        3.31050
C        -13.75528       10.95522        4.32045
C        -12.60203       10.27663        4.02971
Br       -14.92131       10.46777        5.70268
H         -0.50679        2.57468        0.40468
H         -1.11751        0.14243        4.74409
H          2.30207        2.46354        1.08579
H         -6.20707        0.98335        2.38189
H         -5.56666        2.47677       -0.04038
H        -10.28201        2.00660       -1.65141
H         -6.54564        2.96771       -2.00184
H         -9.37240        4.06652       -2.48041
H         -6.52587        7.33394       -7.80377
H         -4.87296        9.22801       -8.62111
H         -4.06714       11.39866       -7.53820
H         -4.92722       13.20644       -6.18686
H         -6.59282       14.33025       -4.63237
H         -8.10093       13.61927       -2.72062
H         -7.02181       11.32254       -0.96648
H        -10.05624        9.69364        2.73604
H        -12.66779       13.60796        1.02277
H        -12.26717        9.39746        4.56731
