100

C         -3.67254        1.46754        2.00975
C         -3.14719        1.44095        3.25801
C         -1.83022        0.95282        3.52906
N         -0.76146        0.55499        3.74280
C         -3.84584        1.97246        4.38600
N         -4.41951        2.39600        5.29264
C         -2.96785        1.05859        0.75865
C         -3.56168        1.73281       -0.30810
C         -3.16918        1.59119       -1.63159
C         -2.15422        0.65246       -1.91522
C         -1.57912       -0.06528       -0.85363
C         -1.96288        0.13208        0.49915
S         -0.40407       -1.19230       -1.43786
C         -0.67189       -0.74071       -3.04241
C         -1.60239        0.25308       -3.17908
Br         0.20711       -1.53051       -4.49588
C         -4.73699        2.49334        0.14195
O         -5.38695        3.24879       -0.54766
C         -4.94554        2.10087        1.57807
C         -6.13779        2.14273        2.20746
C         -7.35599        2.58505        1.59378
S         -7.78272        4.23364        1.67916
C         -9.29618        4.02779        0.86925
C         -9.43924        2.70116        0.45951
C         -8.36770        1.84525        0.99305
C         -8.41332        0.34610        0.89492
F         -7.31944       -0.25895        1.42556
F         -9.48253       -0.14727        1.57060
F         -8.51760       -0.08338       -0.38428
C        -10.55261        2.13162       -0.38678
F        -11.52149        3.02295       -0.70947
F        -10.07370        1.63754       -1.55716
F        -11.17366        1.10119        0.24106
C        -10.21435        5.13062        0.73758
C         -9.82435        6.41648        0.69920
C        -10.72598        7.55104        0.53574
C        -10.36690        8.72695       -0.00754
C        -11.23839        9.84652       -0.29684
C        -10.72533       10.69755       -1.20650
C         -9.43716       10.25719       -1.72020
S         -8.77556        9.03684       -0.63715
C         -8.82136       10.60330       -2.86563
C         -9.20169       11.62462       -3.81924
C         -8.34510       11.74226       -4.85366
C         -7.22650       10.82343       -4.79727
S         -7.39592        9.73682       -3.45273
C         -6.15150       10.84404       -5.60800
C         -4.97752       10.05042       -5.37142
S         -3.78120       10.72314       -4.33651
C         -2.79456        9.31959       -4.34666
C         -3.28693        8.38422       -5.24890
C         -4.57331        8.80029       -5.83439
C         -5.31647        7.90823       -6.78804
F         -6.48795        8.42338       -7.23009
F         -4.56639        7.65258       -7.89060
F         -5.59621        6.70679       -6.22515
C         -2.62224        7.07087       -5.58237
F         -1.42535        6.89009       -4.96677
F         -3.39419        6.01448       -5.23308
F         -2.37690        6.96488       -6.91189
C         -1.66423        9.19262       -3.47692
C         -0.93154       10.22999       -3.05243
C          0.18592       10.08214       -2.14344
C          0.57117       11.01798       -1.26496
C         -0.01402       12.31653       -0.91344
C         -1.33597       12.55477       -0.73661
C         -1.87786       13.86705       -0.64528
N         -2.32878       14.93417       -0.65344
C         -2.27884       11.48552       -0.58179
N         -3.00752       10.60778       -0.36869
C          1.11781       13.18859       -0.47876
C          2.24230       12.36463       -0.30847
C          1.95895       10.98025       -0.72461
O          2.72338       10.04045       -0.68410
C          3.45386       12.79468        0.21445
C          3.53533       14.13317        0.65021
C          2.42534       14.97481        0.46710
C          1.21044       14.52919       -0.12313
S          2.75120       16.55834        1.08551
C          4.27834       16.10030        1.64182
C          4.60848       14.81189        1.32161
Br         5.40528       17.23544        2.61702
H         -3.67218        2.14245       -2.42190
H         -1.50180       -0.47432        1.27139
H         -1.90785        0.67097       -4.13119
H         -6.25110        1.73587        3.20493
H        -11.27305        4.90284        0.63675
H         -8.76429        6.65994        0.75008
H        -11.76316        7.39579        0.82060
H        -12.22147        9.94709        0.14189
H        -11.25253       11.56418       -1.58027
H        -10.06319       12.26729       -3.68284
H         -8.45055       12.49055       -5.62949
H         -6.09166       11.59593       -6.39010
H         -1.41446        8.19541       -3.11963
H         -1.15228       11.23942       -3.39192
H          0.79775        9.18777       -2.27373
H          4.28567       12.10500        0.32954
H          0.38786       15.22893       -0.22478
H          5.54957       14.34360        1.58606
