118

C         -2.38992       -2.82459        0.71517
C         -1.89417       -3.90809        1.35157
C         -1.32393       -5.03352        0.67901
N         -0.84440       -5.94773        0.14643
C         -1.83387       -4.01947        2.76678
N         -1.78330       -4.12395        3.91695
C         -2.42402       -2.62929       -0.76589
C         -2.74593       -1.30171       -1.04855
C         -2.82605       -0.77591       -2.33811
C         -2.52751       -1.63746       -3.42017
C         -2.22884       -2.97818       -3.14102
C         -2.20425       -3.49839       -1.82654
S         -1.89278       -3.86731       -4.58053
C         -2.10326       -2.50051       -5.54373
C         -2.45699       -1.38211       -4.83492
Br        -1.86850       -2.52841       -7.40138
C         -2.95823       -0.54875        0.19394
O         -3.09436        0.65652        0.25289
C         -2.87922       -1.55570        1.31815
C         -3.28456       -1.27462        2.56972
C         -3.89892       -0.04214        3.04999
C         -5.09911        0.41575        2.66121
C         -5.81575        1.53749        3.22648
C         -7.13497        1.50104        2.96211
C         -7.52082        0.32858        2.19079
S         -6.08864       -0.39457        1.48096
C         -8.72702       -0.25851        2.09637
C         -9.96524        0.16076        2.71725
C        -10.96096       -0.73069        2.58378
C        -10.59090       -1.91423        1.83455
S         -8.95842       -1.80154        1.26356
C        -11.38980       -2.96563        1.59702
C        -11.00410       -4.19926        0.87640
C        -11.11200       -4.40598       -0.51891
O        -11.50810       -3.49091       -1.46289
C        -12.50270       -2.52687       -1.14036
C        -13.20263       -2.13606       -2.44357
C        -14.26591       -1.07613       -2.21665
C        -10.71292       -5.65107       -1.06214
C        -10.17153       -6.63430       -0.21772
C        -10.03428       -6.44326        1.14839
C        -10.45738       -5.22695        1.68655
O         -9.48417       -7.35098        2.01744
C         -9.14995       -8.64574        1.49410
C         -8.05455       -9.27817        2.34543
C         -7.59865      -10.60834        1.76080
C        -10.78323       -5.95535       -2.51310
C        -10.94165       -7.19758       -3.00248
C        -10.91990       -7.50415       -4.41224
C        -10.14004       -8.42341       -5.00240
C        -10.21033       -8.72824       -6.40893
C         -9.44541       -9.76473       -6.77309
C         -8.67638      -10.34834       -5.68453
S         -8.92209       -9.40227       -4.21195
C         -7.91662      -11.45916       -5.76875
C         -7.83238      -12.33482       -6.92599
C         -7.07642      -13.42378       -6.73656
C         -6.47190      -13.48427       -5.42647
S         -6.90104      -12.08683       -4.46781
C         -5.71952      -14.51244       -5.00811
C         -5.05243      -14.62418       -3.72728
C         -5.23208      -15.58886       -2.81517
C         -6.13786      -16.73971       -2.71632
C         -7.46669      -16.78457       -2.98097
C         -8.27000      -17.92779       -2.68888
N         -8.91223      -18.86246       -2.45087
C         -8.22606      -15.67312       -3.44094
N         -8.94357      -14.82873       -3.78250
C         -5.41438      -17.77286       -1.92051
C         -4.33698      -17.16302       -1.27430
C         -4.18191      -15.77270       -1.75019
O         -3.32725      -14.98750       -1.39629
C         -3.51995      -17.82514       -0.36052
C         -3.80782      -19.18481       -0.07787
C         -4.85593      -19.80748       -0.77214
C         -5.64772      -19.12808       -1.72451
S         -5.04019      -21.45724       -0.30050
C         -3.77246      -21.34456        0.80457
C         -3.18367      -20.10726        0.83481
Br        -3.22887      -22.78336        1.87329
H         -3.08684        0.26782       -2.49470
H         -1.99539       -4.55272       -1.70229
H         -2.63993       -0.41578       -5.28872
H         -3.25053       -2.01828        3.36038
H         -3.38091        0.44306        3.87326
H         -5.33220        2.29601        3.82668
H         -7.84027        2.23468        3.32552
H        -10.06617        1.09423        3.25346
H        -11.94836       -0.59337        3.00185
H        -12.40438       -2.97749        1.98404
H        -12.02166       -1.63926       -0.71731
H        -13.24485       -2.93074       -0.44352
H        -13.65616       -3.02576       -2.89752
H        -12.46447       -1.77352       -3.16994
H        -15.04298       -1.44316       -1.53891
H        -14.74281       -0.80307       -3.16342
H        -13.83019       -0.17057       -1.78268
H         -9.83124       -7.55077       -0.67926
H        -10.33642       -5.06690        2.75726
H         -8.74448       -8.59674        0.48129
H        -10.05047       -9.27243        1.49683
H         -8.40780       -9.41630        3.37216
H         -7.20061       -8.59229        2.39884
H         -8.43398      -11.31085        1.67621
H         -6.83311      -11.06139        2.39762
H         -7.16709      -10.47393        0.76220
H        -10.64878       -5.11053       -3.18374
H        -11.08058       -8.05707       -2.34886
H        -11.63934       -6.94856       -5.00913
H        -10.83640       -8.17137       -7.09172
H         -9.39320      -10.11806       -7.79228
H         -8.37367      -12.15891       -7.84432
H         -6.94279      -14.19636       -7.48136
H         -5.53425      -15.34036       -5.69102
H         -4.24478      -13.90131       -3.58500
H         -2.69631      -17.30822        0.12454
H         -6.41838      -19.67982       -2.25044
H         -2.35012      -19.85557        1.47913
