100

C        -12.34440       -0.15578       -1.30396
C        -11.90984       -1.42040       -1.54753
C        -12.73732       -2.56208       -1.40895
N        -13.40532       -3.51257       -1.29263
C        -10.59104       -1.73629       -1.98540
N         -9.51943       -2.01517       -2.33675
C        -13.73778        0.23840       -0.90251
C        -13.82776        1.62992       -0.90496
C        -14.97256        2.35363       -0.58209
C        -16.12626        1.62865       -0.22585
C        -16.05725        0.22844       -0.21410
C        -14.87247       -0.48370       -0.54515
S        -17.57355       -0.46033        0.24885
C        -18.28401        1.06018        0.42634
C        -17.43086        2.09483        0.15252
Br       -20.06561        1.30526        0.94890
C        -12.55060        2.24139       -1.26506
O        -12.38872        3.44169       -1.35706
C        -11.57295        1.11037       -1.45145
C        -10.25754        1.30844       -1.64262
C         -9.57354        2.57652       -1.75901
C         -8.24991        2.68097       -1.95655
C         -7.65715        3.96537       -2.06871
O         -8.37666        5.13171       -1.95867
C         -7.55406        6.21814       -2.12082
C         -6.28013        5.73343       -2.34200
C         -6.34380        4.33338       -2.28867
O         -5.31406        3.48164       -2.42473
O         -5.16903        6.46728       -2.53861
C         -8.03940        7.54132       -2.04828
C         -9.08929        7.79793       -1.26030
C         -9.68351        9.09910       -1.23009
C         -9.84644        9.81422       -0.11327
C        -10.57263       11.04503       -0.05037
S        -10.48174       11.90469        1.45364
C        -11.63359       13.11100        1.00105
C        -11.90284       12.99051       -0.35232
C        -11.39523       11.74595       -0.92085
C        -11.72972       11.32843       -2.22172
C        -12.50225       12.25084       -2.93665
F        -12.83115       11.93043       -4.19842
C        -12.93905       13.48339       -2.40488
F        -13.65986       14.29303       -3.19585
C        -12.67668       13.90638       -1.08822
C        -12.11518       13.94989        2.05846
C        -13.37592       14.40572        2.07538
N        -14.02133       15.10765        3.07028
C        -15.29894       15.58893        3.05069
S        -15.67388       16.99354        3.99572
C        -17.24352       17.05918        3.37792
N        -18.12913       18.10412        3.77088
O        -18.60103       18.79234        2.85750
O        -18.37507       18.21080        4.97812
C        -17.53384       16.04907        2.50138
C        -16.44244       15.13930        2.38978
C        -16.54126       13.94175        1.61186
C        -16.80327       12.70111        2.05186
C        -16.53627       11.56064        1.12019
O        -16.49180       11.58577       -0.09012
C        -16.26261       10.40717        1.99170
C        -15.81742        9.16840        1.56449
C        -15.46027        8.22957        2.53460
C        -15.57572        8.55969        3.91841
C        -15.16876        7.61300        4.87030
C        -14.65016        6.38657        4.46331
C        -14.54279        6.05978        3.11855
C        -14.95618        6.97680        2.15408
F        -14.23704        5.50866        5.38653
C        -16.07499        9.82355        4.31181
C        -16.42878       10.75356        3.34344
C        -17.02003       12.12338        3.38191
C        -17.87434       12.56103        4.33369
C        -18.84310       13.57647        4.07492
N        -19.69186       14.33988        3.86527
C        -17.99809       11.93957        5.60208
N        -18.07380       11.44545        6.65122
H        -14.96581        3.44034       -0.60190
H        -14.90327       -1.56508       -0.49841
H        -17.70850        3.14052        0.21366
H         -9.57188        0.47319       -1.71545
H        -10.16264        3.48735       -1.68778
H         -7.60565        1.81212       -2.04653
H         -4.50638        4.01237       -2.55790
H         -5.38530        7.41614       -2.52286
H         -7.56423        8.32428       -2.62870
H         -9.58147        7.01731       -0.67984
H        -10.00431        9.41596       -2.20761
H         -9.40607        9.43245        0.80833
H        -11.49172       10.39949       -2.70928
H        -13.04689       14.85724       -0.73341
H        -11.48394       14.09661        2.93221
H        -14.01485       14.22009        1.22155
H        -13.39938       15.45639        3.79969
H        -18.50141       15.92651        2.02622
H        -16.29941       14.06650        0.55450
H        -15.72263        8.96363        0.50139
H        -15.23251        7.81799        5.93576
H        -14.12709        5.09989        2.82830
H        -14.86036        6.71310        1.10217
H        -16.14817       10.04666        5.37288
