120

C        -16.67674       13.96075        3.25536
C        -17.24843       13.77356        4.46784
C        -18.29712       14.60628        4.95555
N        -19.14767       15.29045        5.34770
C        -16.89381       12.68847        5.31783
N        -16.60221       11.80211        6.01454
C        -17.06160       14.97617        2.23238
C        -16.59925       14.54176        0.98717
C        -16.73616       15.26004       -0.19317
C        -17.31412       16.54438       -0.10653
C        -17.76119       17.00248        1.14358
C        -17.66343       16.22437        2.32614
S        -18.38808       18.60892        1.02500
C        -18.02965       18.69679       -0.62164
C        -17.49087       17.54323       -1.12381
Br       -18.32430       20.23083       -1.65481
C        -15.81740       13.30734        1.12732
O        -15.39490       12.63636        0.21081
C        -15.66531       13.10341        2.60766
C        -14.63371       12.44147        3.15628
C        -13.53630       11.84196        2.39032
C        -12.45324       12.67743        2.05422
C        -11.36096       12.19518        1.31996
C        -11.31525       10.86314        0.91970
C        -12.36423       10.02806        1.28023
C        -13.47915       10.51327        1.97921
N        -14.40527        9.46373        2.12426
C        -15.71430        9.57453        2.70121
C        -13.92204        8.27199        1.58186
O        -14.49288        7.19140        1.54255
C        -12.55260        8.56139        0.97624
C        -11.52119        7.55451        1.50191
C        -10.98259        7.93505        2.89039
O        -11.62510        7.94230        3.92944
N         -9.63493        8.29349        2.73184
C         -8.78243        8.66642        3.82669
C         -9.21493        8.12429        1.40733
C         -8.03217        8.50559        0.80148
C         -7.94698        8.35943       -0.59084
C         -8.96472        7.70168       -1.31272
C        -10.13890        7.30513       -0.68537
C        -10.27061        7.59568        0.66040
C         -6.93287        9.05700       -1.37557
C         -5.64998        8.69098       -1.47527
C         -4.75237        9.35248       -2.37539
S         -3.56692        8.33905       -3.12875
C         -3.01535        9.58323       -4.13836
C         -3.63748       10.78900       -3.89552
C         -3.30608       12.04128       -4.64493
C         -4.62527       10.66783       -2.83934
C         -5.40676       11.80700       -2.41235
C         -5.81709       12.08299       -1.16335
C         -6.64674       13.22566       -0.82907
C         -7.09184       13.43285        0.41729
C         -7.88403       14.57344        0.83983
C         -7.48203       15.44068        1.78215
C         -8.28447       16.47856        2.38703
C         -7.66806       17.11455        3.39902
C         -6.31055       16.65200        3.64735
S         -5.87687       15.42608        2.45697
C         -5.47634       17.00294        4.64627
C         -5.75005       17.88616        5.76443
C         -4.80955       17.84705        6.72392
C         -3.71494       16.94503        6.43041
S         -3.84808       16.33223        4.80726
C         -2.73579       16.59686        7.28286
C         -1.65317       15.65064        6.96169
C         -1.74859       14.23043        7.05779
O         -2.95063       13.78993        7.58430
C         -2.91562       12.59294        8.35553
C         -0.70060       13.35153        6.62028
O         -0.97689       12.00034        6.59906
C          0.11820       11.11484        6.81600
C          0.52665       13.83065        6.12133
C          0.68973       15.23416        6.07061
C         -0.41323       16.16892        6.49192
N         -0.06519       17.46300        6.36337
S          1.47943       17.49012        5.76163
N          1.79590       15.86574        5.64791
H        -16.34139       14.87191       -1.12856
H        -17.99790       16.65176        3.26528
H        -17.19719       17.41268       -2.15873
H        -14.46973       12.39786        4.22905
H        -12.45361       13.72423        2.35132
H        -10.54662       12.86400        1.05802
H        -10.47455       10.50570        0.33424
H        -16.27566       10.36313        2.19444
H        -15.62615        9.78351        3.76987
H        -16.27103        8.64184        2.57150
H        -12.68234        8.46354       -0.11153
H        -11.89941        6.52670        1.54189
H         -9.37524        9.14172        4.61421
H         -8.00040        9.35732        3.50527
H         -8.33212        7.75755        4.23671
H         -7.24949        9.01537        1.35411
H         -8.86613        7.56423       -2.38944
H        -10.94893        6.86059       -1.25451
H         -7.33107        9.89455       -1.94407
H         -5.30521        7.79872       -0.95654
H         -2.24374        9.37588       -4.86737
H         -2.49019       11.87450       -5.35668
H         -2.99367       12.83230       -3.95628
H         -4.17597       12.38785       -5.21224
H         -5.66477       12.51841       -3.19475
H         -5.54074       11.41916       -0.34631
H         -6.89196       13.93004       -1.62014
H         -6.81705       12.74269        1.21583
H         -8.88150       14.64503        0.41606
H         -9.29924       16.68267        2.07495
H         -8.13924       17.89475        3.98095
H         -6.64901       18.48148        5.84157
H         -4.86467       18.40754        7.64693
H         -2.70193       17.00843        8.28716
H         -3.74165       12.62972        9.07222
H         -1.98995       12.48718        8.93324
H         -3.08698       11.72421        7.71280
H          0.79558       11.09272        5.95753
H         -0.29103       10.10600        6.93095
H          0.65284       11.36715        7.73781
H          1.31784       13.19274        5.75319
