83

C        -13.07872        1.73557       -2.32492
C        -14.35199        1.46515       -1.98805
C        -15.37142        2.46332       -2.03364
N        -16.19013        3.28326       -2.07247
C        -14.79093        0.14927       -1.64207
N        -15.12050       -0.92099       -1.35527
C        -12.51783        3.01832       -2.83666
C        -11.36697        2.72454       -3.57287
C        -10.53410        3.66919       -4.15030
C        -10.80851        5.01834       -3.85644
C        -11.92414        5.32925       -3.05940
C        -12.82703        4.34413       -2.57818
S        -11.97304        7.02261       -2.71176
C        -10.51070        7.29369       -3.51025
C        -10.03736        6.18951       -4.16506
Br        -9.59205        8.92471       -3.45716
C        -11.02154        1.30827       -3.44285
O        -10.10906        0.76854       -4.02755
C        -11.97564        0.77046       -2.41708
C        -11.66762       -0.19525       -1.53599
C        -10.38466       -0.84861       -1.47880
C         -9.91684       -1.74172       -2.36241
C        -10.62064       -2.30035       -3.49965
C         -9.99229       -3.20993       -4.25815
C         -8.61729       -3.59799       -3.97201
C         -7.89620       -3.05820       -2.96335
C         -8.51136       -2.11223       -2.03354
C         -8.10621       -1.46571       -0.89022
C         -9.31915       -0.67399       -0.48782
C         -9.53834        0.04417        0.62492
C         -6.88279       -1.52844       -0.07172
C         -6.08908       -2.65504        0.11224
C         -6.01557       -3.88332       -0.61123
N         -5.80768       -4.86379       -1.18940
S         -5.03919       -2.52056        1.45319
C         -5.39318       -0.87628        1.70696
O         -4.66602       -0.29884        2.67633
C         -5.05071        0.94723        3.22199
C         -6.32199       -0.43485        0.76616
N         -6.65094        0.89050        0.70464
C         -6.74592        1.74142       -0.35310
S         -7.41952        3.27301       -0.02283
C         -7.34630        3.70169       -1.65182
N         -7.79737        5.01833       -1.97549
O         -8.79401        5.43952       -1.37339
O         -7.14371        5.63532       -2.82515
C         -6.76226        2.74429       -2.46311
C         -6.26538        1.66517       -1.65988
C         -5.28084        0.66288       -1.93778
C         -4.88609       -0.07108       -2.98501
C         -3.91360       -1.13586       -2.76976
C         -2.94882       -1.39478       -1.75871
C         -2.65800       -0.49289       -0.68324
N         -2.47959        0.25737        0.17756
C         -2.33795       -2.65164       -1.93193
C         -2.76904       -3.29575       -3.03634
S         -3.90065       -2.45555       -3.92833
S         -2.05861       -4.80383       -3.28177
C         -1.15670       -4.58157       -1.87480
C         -1.37578       -3.40472       -1.23464
C         -0.59133       -3.24885       -0.06485
C         -0.47692       -2.19417        0.89207
N         -0.29744       -1.40899        1.71196
C          0.21093       -4.39271        0.09789
S         -0.02253       -5.56584       -1.14117
H         -9.64015        3.36729       -4.69003
H        -13.64969        4.64211       -1.93557
H         -9.10917        6.17359       -4.72582
H        -12.31543       -0.43621       -0.70063
H        -11.62880       -1.97806       -3.73402
H        -10.48633       -3.63872       -5.12559
H         -8.18020       -4.33224       -4.64163
H         -6.86140       -3.34202       -2.88221
H        -10.46420        0.58509        0.78687
H         -8.82152        0.13034        1.42594
H         -4.38442        1.16402        4.06327
H         -6.07206        0.90555        3.61454
H         -4.92737        1.76387        2.50449
H         -6.74811        1.38115        1.58694
H         -6.61132        2.87094       -3.52875
H         -4.76168        0.44733       -1.01882
H         -5.36038        0.03498       -3.95869
H          0.92561       -4.58740        0.88431
