83

C         -2.09426        0.35793       -2.30317
C         -2.00556        0.74103       -3.60181
C         -0.79267        1.18634       -4.20450
N          0.18908        1.54812       -4.70322
C         -3.12998        0.77176       -4.48356
N         -4.03304        0.79604       -5.20914
C         -0.97687        0.38608       -1.29878
C         -1.51353        0.16177       -0.03126
C         -0.77738        0.12436        1.14792
C          0.61272        0.32681        1.05681
C          1.17624        0.54370       -0.20901
C          0.39956        0.56909       -1.39965
S          2.88739        0.76239       -0.09072
C          2.86197        0.57315        1.58665
C          1.60995        0.34452        2.08914
Br         4.39735        0.66441        2.65523
C         -2.95621       -0.05714       -0.09772
O         -3.66303       -0.18728        0.87958
C         -3.31589       -0.06359       -1.55714
C         -4.52668       -0.46351       -1.98528
C         -5.64388       -0.92915       -1.17739
C         -5.56608       -2.01269       -0.39098
C         -6.89752       -0.26734       -1.33370
C         -7.97960        0.21458       -1.53112
C         -9.28186        0.64100       -1.90790
C        -10.26803        0.85744       -1.02295
C        -11.61832        1.10001       -1.44219
S        -12.60069        2.12792       -0.49565
C        -13.95553        2.11081       -1.56924
C        -13.68311        1.18717       -2.58192
C        -12.38471        0.56511       -2.46632
S        -11.81912       -0.78983       -3.47880
C        -12.99601       -0.90642       -4.74044
O        -12.79252       -1.06187       -5.92679
C        -14.33606       -0.93215       -4.04899
O        -14.94723       -1.90701       -3.66576
S        -14.77281        0.74076       -3.91070
C        -15.17780        2.94373       -1.24914
C        -15.16315        4.20387       -0.59937
C        -16.36186        4.92335       -0.39073
C        -17.59319        4.43966       -0.78450
C        -17.64789        3.18340       -1.41777
C        -16.45949        2.46757       -1.61122
N        -18.82631        2.68000       -1.84275
C        -19.92717        3.43195       -1.61046
C        -19.86481        4.65309       -0.97337
N        -18.69627        5.18112       -0.55742
C        -13.97848        4.94992       -0.17206
C        -13.28136        4.95331        0.97507
C        -13.24289        4.22730        2.26779
C        -14.18019        3.43548        2.84948
C        -14.00800        2.83246        4.13218
N        -13.88680        2.33167        5.17163
C        -15.44535        3.11399        2.28642
N        -16.49346        2.78170        1.92606
C        -11.92017        4.58784        2.90193
C        -11.28727        5.55062        2.11558
C        -12.07594        5.84987        0.92518
O        -11.76916        6.65329        0.06728
C        -10.05482        6.13010        2.40294
C         -9.40088        5.72444        3.58317
C        -10.00534        4.73942        4.37556
C        -11.25270        4.14825        4.04232
S         -9.03865        4.37769        5.76162
C         -7.87687        5.52212        5.32820
C         -8.15806        6.16437        4.15243
Br        -6.35418        5.87712        6.35897
H         -1.26661       -0.06134        2.10073
H          0.91510        0.72432       -2.33961
H          1.39607        0.19557        3.14104
H         -4.77902       -0.47971       -3.04112
H         -4.64450       -2.57251       -0.26981
H         -6.41983       -2.35582        0.18595
H         -9.45285        0.70376       -2.97847
H        -10.04968        0.83616        0.04283
H        -16.34224        5.89644        0.09960
H        -16.58465        1.48621       -2.05849
H        -20.86917        3.02153       -1.95552
H        -20.75205        5.24524       -0.78060
H        -13.66322        5.62870       -0.97160
H         -9.62288        6.87319        1.73775
H        -11.63005        3.37686        4.70071
H         -7.52464        6.92496        3.71194
