84

C         -9.09327       -0.98301       -3.89477
C        -10.41970       -1.27341       -3.98384
C        -11.03192       -1.78329       -5.17088
N        -11.52092       -2.21694       -6.12474
C        -11.32251       -1.11163       -2.89358
N        -12.03864       -1.00355       -1.98537
C         -8.08681       -1.11132       -5.00720
C         -6.87276       -0.58135       -4.56315
C         -5.70525       -0.53399       -5.31794
C         -5.73683       -1.08517       -6.61392
C         -6.94118       -1.63005       -7.08134
C         -8.12800       -1.64564       -6.29498
S         -6.74847       -2.25681       -8.68301
C         -5.11427       -1.83372       -8.72462
C         -4.68673       -1.20826       -7.58555
Br        -3.99038       -2.19119      -10.18076
C         -6.96884       -0.11271       -3.18183
O         -6.06926        0.44890       -2.58984
C         -8.35637       -0.44605       -2.71287
C         -8.70358       -0.29333       -1.42116
C         -7.83391        0.11479       -0.32597
C         -7.96140        1.26370        0.38508
O         -7.11520        1.57841        1.45935
C         -6.14823        0.67277        1.72519
C         -5.99816       -0.50721        0.96986
C         -4.93440       -1.27072        1.37532
S         -4.14045       -0.54809        2.72245
C         -5.22651        0.78894        2.73393
O         -6.82866       -0.82375       -0.04973
C         -8.98797        2.25990        0.15757
C         -8.71940        3.56958        0.03060
C         -9.72560        4.56723       -0.16799
S         -9.29404        5.95748       -1.10682
C        -10.81205        6.72433       -0.88752
C        -11.64705        5.91600       -0.13662
C        -11.02505        4.70296        0.30739
S        -11.79459        3.55688        1.43427
C        -13.37117        4.20863        1.75830
O        -14.39411        3.58738        1.95898
C        -13.19248        5.69615        1.95588
O        -12.98730        6.27932        2.99953
S        -13.28279        6.36752        0.36136
C        -11.01643        8.05419       -1.37779
C        -11.45430        8.33455       -2.61483
C        -11.84762        9.65186       -3.07593
C        -12.65565        9.61462       -4.15066
C        -12.95307        8.25604       -4.57410
S        -11.78423        7.14981       -3.84468
C        -14.05174        7.82760       -5.22192
C        -15.16702        8.61633       -5.70959
C        -16.30111        7.90354       -5.83008
C        -16.14781        6.51785       -5.42041
S        -14.45505        6.12071       -5.34979
C        -17.16812        5.73546       -5.02985
C        -17.04152        4.44764       -4.41416
S        -18.23647        3.99142       -3.21095
C        -17.46768        2.53793       -2.92978
C        -16.36479        2.34508       -3.70269
C        -16.10833        3.42111       -4.57125
C        -15.81648        1.05332       -3.38129
O        -14.84077        0.50902       -3.86597
C        -16.75519        0.52080       -2.30784
C        -17.71993        1.44367       -2.08812
C        -16.63495       -0.79632       -1.74281
C        -17.09544       -1.15749       -0.53806
H         -4.79728       -0.10577       -4.90472
H         -9.01466       -2.09522       -6.72903
H         -3.67173       -0.86219       -7.42717
H         -9.69699       -0.53441       -1.05857
H         -4.58011       -2.20355        0.96165
H         -5.12289        1.57701        3.46646
H         -9.99825        1.86946        0.08865
H         -7.67969        3.89637        0.04326
H        -10.91121        8.85653       -0.65332
H        -11.57150       10.56149       -2.55989
H        -13.10852       10.49024       -4.59432
H        -15.10147        9.67607       -5.91094
H        -17.25185        8.32062       -6.13263
H        -18.17289        6.15153       -5.07345
H        -15.27997        3.44303       -5.26721
H        -18.55771        1.35717       -1.41234
H        -16.11671       -1.53222       -2.35698
H        -17.59362       -0.46022        0.12824
H        -16.96473       -2.17423       -0.18036
