87

C         -4.93996        4.88723       -9.31021
C         -4.03968        5.60369       -8.58538
C         -3.68360        6.95543       -8.88021
N         -3.38447        8.05249       -9.11741
C         -3.34495        5.06167       -7.46449
N         -2.74878        4.61233       -6.58279
C         -5.69524        5.38737      -10.51052
C         -6.60564        4.39839      -10.89755
C         -7.44635        4.48711      -12.00068
C         -7.39493        5.65870      -12.78233
C         -6.50823        6.67493      -12.40154
C         -5.64353        6.55513      -11.27508
S         -6.63158        8.02883      -13.47400
C         -7.80892        7.26387      -14.41319
C         -8.12921        6.01086      -13.96539
Br        -8.60261        8.04996      -15.91762
C         -6.56325        3.24757       -9.99350
O         -7.36264        2.33868      -10.00946
C         -5.40367        3.48589       -9.06684
C         -4.95219        2.48667       -8.28583
N         -5.36858        1.16697       -8.18062
C         -6.34832        0.62292       -7.39180
S         -6.75037       -1.05393       -7.52277
C         -8.05891       -0.88522       -6.45617
N         -8.91500       -1.98822       -6.18865
O         -9.10075       -2.26000       -4.99483
O         -9.44584       -2.54582       -7.15718
C         -8.16922        0.36577       -5.91015
C         -7.15285        1.20954       -6.42753
C         -7.05554        2.58298       -6.10984
C         -6.31934        3.09398       -5.12077
C         -6.07106        4.49046       -4.85911
C         -6.59956        5.62609       -5.36367
C         -7.66517        5.72607       -6.43081
C         -6.16846        7.02392       -4.92714
N         -5.10563        6.97083       -3.94789
C         -4.20853        7.95748       -3.62402
C         -3.99643        9.15718       -4.17740
C         -2.99010       10.06670       -3.65426
C         -3.24213       11.32367       -3.25768
C         -2.31545       12.21316       -2.59523
C         -2.91580       13.25858       -1.99449
C         -4.36495       13.26142       -2.15288
S         -4.81744       12.04999       -3.35689
C         -5.29721       13.95164       -1.46468
C         -5.11312       14.89970       -0.38042
C         -6.23579       15.12356        0.32986
C         -7.37253       14.34083       -0.12650
S         -7.03221       13.66516       -1.69258
C         -8.47671       14.07050        0.59483
C         -9.39778       13.02828        0.23749
S         -9.07933       11.46101        0.89647
C        -10.37624       10.74720        0.06840
C        -11.10154       11.65474       -0.67501
C        -10.55336       13.00852       -0.54451
C        -11.21075       14.17837       -1.21531
F        -10.57588       15.35843       -1.01334
F        -11.30263       13.99793       -2.55541
F        -12.47909       14.33775       -0.75830
C        -12.29730       11.29139       -1.50964
F        -12.56987        9.96150       -1.46400
F        -13.41485       11.93371       -1.09420
F        -12.11351       11.60530       -2.81414
H         -8.11703        3.66889      -12.25146
H         -4.97810        7.38041      -11.06021
H         -8.85816        5.36594      -14.44182
H         -4.09741        2.61725       -7.62845
H         -4.80713        0.51544       -8.72226
H         -8.95719        0.67308       -5.22530
H         -7.56528        3.19362       -6.83250
H         -5.76499        2.40637       -4.47506
H         -5.27667        4.56961       -4.10763
H         -8.39265        6.50530       -6.17807
H         -8.27929        4.84351       -6.56549
H         -7.20317        5.98325       -7.38976
H         -7.03760        7.54941       -4.51067
H         -5.83378        7.56845       -5.81858
H         -5.26670        6.31951       -3.18429
H         -3.61126        7.66004       -2.76272
H         -4.61779        9.51256       -4.99406
H         -2.00074        9.63768       -3.51092
H         -1.25182       12.01596       -2.55939
H         -2.37745       13.99804       -1.41796
H         -4.15750       15.34935       -0.14474
H         -6.27887       15.76129        1.20275
H         -8.58299       14.49882        1.58781
H        -10.55641        9.68295        0.16361
