121

C         -1.97162       -1.17306       -0.25269
C         -1.32077       -1.64393        0.84587
C         -0.56589       -2.84824        0.83257
N          0.05310       -3.83041        0.82980
C         -1.29418       -0.92711        2.07121
N         -1.26648       -0.34962        3.08551
C         -1.96197       -1.77096       -1.62184
C         -2.36672       -0.78230       -2.52371
C         -2.52567       -0.98774       -3.88762
C         -2.27151       -2.28083       -4.39127
C         -1.85763       -3.28338       -3.49944
C         -1.69910       -3.05064       -2.10598
S         -1.59669       -4.77702       -4.33410
C         -2.04293       -4.10452       -5.81734
C         -2.38808       -2.78322       -5.73213
Br        -2.06713       -5.07012       -7.42286
C         -2.68200        0.47064       -1.82320
O         -2.85288        1.54762       -2.35179
C         -2.68894        0.11833       -0.36854
C         -3.43123        0.76935        0.54357
C         -4.32624        1.91212        0.29571
C         -3.87180        3.23549        0.41346
C         -4.79384        4.27424        0.27770
C         -6.15666        3.99981        0.01943
C         -6.60534        2.69669       -0.12012
C         -5.68489        1.65302        0.01632
C         -6.89360        5.24161       -0.05254
C         -6.01018        6.31702        0.14748
C         -4.57410        5.80544        0.35880
C         -4.03422        6.18287        1.77387
C         -3.89538        7.67447        2.08832
C         -3.62184        6.29895       -0.76107
C         -4.01444        5.90313       -2.18522
C         -6.47715        7.62708        0.11698
C         -7.85116        7.87528       -0.01958
C         -8.71628        6.79215       -0.25680
C         -8.24079        5.47353       -0.28369
C         -8.40676        9.24099        0.06201
C         -7.88520       10.18278        0.86647
C         -8.32558       11.58237        1.05981
C         -7.38484       12.58679        1.36253
C         -7.76040       13.94094        1.68055
N         -6.79828       14.83195        2.02447
C         -5.50052       14.41954        2.04483
C         -5.14162       13.15012        1.66718
N         -6.07905       12.23413        1.33456
C         -3.78172       12.70644        1.57827
N         -2.67542       12.36405        1.49317
C         -4.54469       15.36038        2.54446
N         -3.74221       16.07737        2.98097
C         -9.10606       14.36682        1.63719
C        -10.09509       13.39102        1.33013
C         -9.69599       11.95981        1.04482
N        -10.75798       11.17082        0.80788
S        -12.11079       12.11392        0.93247
N        -11.42234       13.58588        1.24984
C         -9.51485       15.77723        1.83002
C         -9.81660       16.36880        2.99311
C        -10.03808       17.79319        3.17304
C         -9.99045       18.18580        4.45921
C         -9.75027       17.08697        5.38408
S         -9.91529       15.54640        4.51563
C         -9.29881       17.13859        6.65341
C         -8.88044       18.30062        7.42195
C         -7.99394       17.98731        8.38763
C         -7.66882       16.56891        8.42092
S         -8.87557       15.67228        7.55564
C         -6.55179       16.02946        8.93720
C         -6.09645       14.62231        8.83157
C         -6.46607       13.67614        9.80320
C         -6.03905       12.33671        9.86978
S         -6.70592       11.42907       11.22297
C         -7.34146       12.94732       12.00235
C         -7.43394       14.03237       10.91629
C         -5.16725       11.90261        8.90416
C         -4.79038       12.82600        7.92850
C         -3.79352       12.26478        6.92482
C         -3.47942       10.79892        7.26628
S         -4.42352       10.31727        8.74736
C         -5.22290       14.16216        7.83703
C         -4.71153       14.96750        6.72728
C         -3.59050       15.69170        6.83058
H         -2.86652       -0.18190       -4.53163
H         -1.40825       -3.87963       -1.46928
H         -2.71041       -2.18570       -6.57686
H         -3.52212        0.40600        1.56431
H         -2.82571        3.44389        0.61322
H         -7.65007        2.48243       -0.31929
H         -6.04288        0.63012       -0.08115
H         -3.04264        5.73110        1.91232
H         -4.67683        5.74140        2.54745
H         -3.22361        8.18122        1.38989
H         -3.49268        7.81224        3.09698
H         -4.85807        8.18844        2.08776
H         -2.60839        5.92073       -0.57439
H         -3.55469        7.39321       -0.73497
H         -3.99828        4.81796       -2.32353
H         -3.30415        6.33440       -2.89808
H         -5.00970        6.27241       -2.44973
H         -5.77996        8.45213        0.21086
H         -9.77888        6.96800       -0.40907
H         -8.92678        4.65447       -0.47069
H         -9.28438        9.43444       -0.54682
H         -7.00883        9.93120        1.46470
H         -9.47201       16.37180        0.92072
H        -10.16847       18.46774        2.33948
H        -10.07803       19.21898        4.76770
H         -9.18825       19.31440        7.19917
H         -7.51560       18.71388        9.03152
H         -5.82572       16.67882        9.41864
H         -6.62303       13.24662       12.77318
H         -8.30590       12.76356       12.48315
H         -7.21365       15.01100       11.35224
H         -8.44707       14.04800       10.49680
H         -2.86467       12.84598        6.96088
H         -4.20703       12.32693        5.91166
H         -2.40907       10.66592        7.45771
H         -3.75021       10.14029        6.43474
H         -5.22775       14.86751        5.77740
H         -3.03658       15.76257        7.76146
H         -3.17984       16.19905        5.96197
