94

C         -1.71351        4.96504       -6.85759
C         -2.04686        5.03897       -5.54740
C         -1.15178        5.46009       -4.52344
N         -0.42990        5.77750       -3.67227
C         -3.32943        4.70229       -5.05502
N         -4.40115        4.46257       -4.68404
C         -0.40715        5.43812       -7.43489
C         -0.37639        5.14405       -8.79686
C          0.65191        5.51789       -9.66144
C          1.73032        6.25464       -9.12404
C          1.72058        6.54488       -7.75331
C          0.66514        6.14417       -6.89522
S          3.12065        7.44618       -7.29316
C          3.69991        7.47261       -8.87713
C          2.88965        6.81477       -9.76407
Br         5.29401        8.32565       -9.36610
C         -1.60343        4.45743       -9.20376
O         -1.83178        4.05597      -10.32690
C         -2.49221        4.39408       -7.98263
C         -3.70549        3.85813       -8.20789
N         -4.85762        3.65432       -7.47241
C         -5.96105        2.91327       -7.81335
S         -5.91583        1.69763       -9.05238
C         -7.48774        1.18125       -8.72740
N         -8.07097        0.08369       -9.45246
O         -9.21240       -0.25424       -9.10873
O         -7.41093       -0.44512      -10.35595
C         -8.08666        1.91165       -7.73131
C         -7.22535        2.93954       -7.21919
C         -7.69429        3.81054       -6.17301
C         -7.36431        5.08850       -5.92425
C         -7.90092        5.85446       -4.80676
C         -8.41720        7.09948       -4.89645
C         -8.68893        7.89525       -6.07910
C         -9.26708        9.10197       -5.92667
C         -9.56620        9.64880       -4.60675
C         -9.33208        8.96025       -3.47056
C         -8.79906        7.60570       -3.55436
C         -8.56454        6.66042       -2.60114
C         -8.01103        5.50270       -3.37163
C         -7.70453        4.28625       -2.89725
C         -8.88084        6.74328       -1.13115
C        -10.05423        7.40010       -0.72847
C        -10.43488        7.45556        0.60982
C         -9.76112        6.69955        1.56990
C         -8.62659        5.96105        1.17614
C         -8.10017        6.10921       -0.13476
N         -6.87029        5.60357       -0.40596
C         -6.26163        4.80916        0.50571
C         -6.90341        4.47082        1.68048
N         -8.04539        5.08940        2.03569
C         -6.39034        3.42208        2.61824
C         -4.92367        4.25279        0.12952
C        -10.21770        6.73111        2.97642
O         -9.21760        6.56327        3.88285
C         -9.71324        6.60982        5.15819
C        -11.06152        6.93245        5.04813
C        -11.41670        6.91646        3.65451
C        -12.77200        7.03975        3.07916
F        -12.84748        6.72532        1.76169
F        -13.67034        6.23146        3.69998
F        -13.24480        8.30991        3.19065
O        -11.81832        7.11422        6.16274
C        -12.87704        8.05243        6.02058
C         -8.90053        6.36825        6.30639
C         -7.75662        5.67923        6.20821
H          0.60147        5.27721      -10.72042
H          0.72709        6.44119       -5.85666
H          3.09660        6.73494      -10.82444
H         -3.87122        3.50101       -9.22773
H         -4.90983        4.10774       -6.56237
H         -9.09847        1.72873       -7.38419
H         -8.45725        3.37102       -5.52976
H         -6.66412        5.61984       -6.56239
H         -8.48196        7.49342       -7.06400
H         -9.52306        9.70747       -6.79106
H         -9.97442       10.65471       -4.56857
H         -9.52534        9.42057       -2.51094
H         -7.25731        3.51892       -3.51670
H         -7.85758        4.00209       -1.86651
H        -10.70556        7.88662       -1.45003
H        -11.28799        8.07480        0.87079
H         -5.46931        3.74929        3.10954
H         -6.20402        2.48794        2.07521
H         -7.13332        3.20147        3.39127
H         -4.48935        4.82507       -0.69639
H         -4.23023        4.31757        0.97412
H         -5.01958        3.20948       -0.18225
H        -13.18552        8.37738        7.01824
H        -13.74668        7.57872        5.55886
H        -12.56980        8.94352        5.46136
H         -9.23904        6.73795        7.26980
H         -7.41767        5.26484        5.25967
H         -7.14492        5.48403        7.08336
