98

C         -5.39538       -2.52369        1.16742
C         -5.94749       -3.55101        0.47679
C         -5.55960       -4.90682        0.67310
N         -5.23669       -6.01175        0.83245
C         -7.01293       -3.35975       -0.44913
N         -7.87062       -3.19736       -1.21396
C         -4.37990       -2.63036        2.25498
C         -4.41700       -1.45698        3.01388
C         -3.58962       -1.21163        4.10341
C         -2.62256       -2.19119        4.42569
C         -2.55651       -3.35663        3.64590
C         -3.43156       -3.59989        2.55809
S         -1.28226       -4.39375        4.18119
C         -0.83500       -3.31940        5.40239
C         -1.61336       -2.19393        5.44948
Br         0.59488       -3.63598        6.57005
C         -5.35345       -0.48746        2.42213
O         -5.65011        0.59487        2.88562
C         -5.80084       -1.10409        1.12552
C         -6.26986       -0.37295        0.10064
C         -6.49911        1.07863        0.15428
C         -7.71442        1.65060        0.54121
C         -7.90900        3.08244        0.61190
N         -9.08851        3.57455        1.02860
C        -10.07311        2.69567        1.36939
C         -9.89618        1.33828        1.28105
N         -8.72085        0.80720        0.86639
C        -10.91576        0.38945        1.62517
N        -11.74521       -0.36764        1.91159
C        -11.29250        3.28307        1.84378
N        -12.28424        3.72588        2.24310
C         -6.87871        3.98426        0.25584
C         -5.62028        3.43896       -0.11538
C         -5.42619        1.95052       -0.16974
N         -4.18321        1.59102       -0.53611
S         -3.33446        2.99429       -0.77868
N         -4.50641        4.11726       -0.44627
C         -7.03792        5.45308        0.24016
C         -7.43593        6.16366       -0.82816
C         -7.49602        7.60863       -0.90380
C         -7.61648        8.07404       -2.15957
C         -7.60265        7.01491       -3.15943
S         -7.84019        5.45593       -2.37007
C         -7.28896        7.14240       -4.46314
C         -7.01638        8.37898       -5.17390
C         -6.37753        8.19273       -6.33718
C         -6.09231        6.80382       -6.61474
S         -6.93201        5.75656       -5.51590
C         -5.24339        6.40046       -7.56680
N         -4.80628        5.14094       -7.92489
C         -3.92833        4.82868       -8.92450
S         -2.91758        3.43022       -8.76463
C         -2.13004        3.76093      -10.22064
N         -1.07504        2.91947      -10.67653
O         -1.24093        2.37462      -11.77457
O         -0.06061        2.85846       -9.97136
C         -2.62965        4.84615      -10.88670
C         -3.67414        5.47318      -10.13635
C         -4.40392        6.61371      -10.61408
C         -3.89122        7.56661      -11.40858
C         -4.65020        8.71269      -11.84590
C         -4.25481        9.70255      -12.65790
C         -3.02819       10.01765      -13.40766
C         -2.23507        9.15712      -14.09385
C         -1.06403        9.56346      -14.79570
N         -0.09319        9.88529      -15.34358
C         -2.56395        7.77975      -14.25847
N         -2.82072        6.65907      -14.41480
C         -3.01354       11.50462      -13.58246
C         -4.28068       11.99273      -13.24538
C         -5.11882       10.92659      -12.68231
O         -6.25537       11.05018      -12.27575
C         -4.69074       13.30437      -13.44492
C         -3.77794       14.18196      -14.06766
C         -2.48362       13.71960      -14.35143
C         -2.06597       12.39319      -14.07555
S         -1.53266       14.95521      -15.09664
C         -2.83538       16.02724      -15.12457
C         -3.95898       15.53381      -14.51802
Br        -2.75179       17.72095      -15.91898
H         -3.65622       -0.27667        4.65294
H         -3.30360       -4.50666        1.97731
H         -1.47155       -1.39206        6.16406
H         -6.46951       -0.80202       -0.87738
H         -6.72311        5.95922        1.14826
H         -7.39897        8.24576       -0.03440
H         -7.61940        9.12799       -2.40388
H         -7.28090        9.35768       -4.79893
H         -6.06880        8.99099       -6.99842
H         -4.75277        7.18204       -8.13868
H         -5.03850        4.42212       -7.23776
H         -2.27463        5.16542      -11.86022
H         -5.43887        6.70158      -10.28540
H         -2.84947        7.49668      -11.69713
H         -5.64175        8.79657      -11.39166
H         -5.69839       13.61706      -13.18475
H         -1.04770       12.10961      -14.31491
H         -4.88928       16.08220      -14.43021
