94

C          0.66249       -4.04853        3.24519
C          0.68515       -5.02196        4.18745
C          1.01439       -6.37470        3.90629
N          1.28813       -7.48287        3.67000
C          0.28492       -4.77518        5.53921
N         -0.03836       -4.57853        6.63850
C          0.87224       -4.25459        1.77193
C          0.31792       -3.15391        1.11478
C          0.30271       -2.98443       -0.26155
C          0.83529       -4.02031       -1.05299
C          1.39319       -5.13945       -0.41466
C          1.45019       -5.26398        1.00267
S          1.94728       -6.29133       -1.58305
C          1.41858       -5.33839       -2.87408
C          0.87940       -4.14445       -2.48170
Br         1.54295       -5.86375       -4.66790
C         -0.28623       -2.21993        2.07008
O         -1.12906       -1.39426        1.79021
C          0.21294       -2.64069        3.41620
C          0.34381       -1.80497        4.46561
C          0.05059       -0.39621        4.43347
S          1.30258        0.66421        3.89169
C          0.35107        2.05176        4.12989
C         -0.86204        1.78140        4.72919
C         -1.82501        2.86884        5.10895
C         -1.03849        0.34866        4.90082
C         -2.20231       -0.22065        5.53094
C         -2.72633       -1.42524        5.25953
C         -3.84819       -1.99572        5.96221
C         -4.30233       -3.22558        5.68231
C         -5.38379       -3.84153        6.41472
C         -5.90796       -5.05797        6.16192
C         -5.48885       -5.93058        5.00899
C         -7.02091       -5.60530        7.02154
N         -6.43369       -6.36390        8.10665
C         -7.14924       -7.02302        9.08399
C         -8.41756       -7.45753        9.05918
C         -8.99126       -8.11654       10.18127
C         -8.45407       -8.88141       11.17834
C         -9.33802       -9.29652       12.17712
S         -8.48090      -10.30095       13.41477
C         -7.03612      -10.00900       12.37710
N         -7.14880       -9.26612       11.27126
C         -5.73626      -10.61403       12.79729
C        -10.60740       -8.83086       11.99342
S        -10.69798       -8.06405       10.44468
C        -11.71794       -9.05708       12.85099
C        -12.73655       -8.19695       13.01962
C        -13.02310       -6.84490       12.52337
C        -12.20722       -5.76437       12.58514
C        -12.62485       -4.46176       12.18893
N        -12.97235       -3.40541       11.85733
C        -10.91084       -5.83764       13.17224
N         -9.86586       -5.88610       13.67971
C        -14.48717       -6.79754       12.27440
C        -15.07671       -7.84207       12.99417
C        -14.03413       -8.72599       13.56123
O        -14.21189       -9.70870       14.24844
C        -16.45008       -8.03018       13.07595
C        -17.28042       -7.12699       12.36810
C        -16.68100       -6.12951       11.58102
C        -15.27927       -5.95521       11.50706
S        -17.86885       -5.18189       10.75937
C        -19.13520       -6.02751       11.48467
C        -18.71458       -7.04195       12.30294
Br       -20.93857       -5.61344       11.19355
H         -0.13967       -2.09661       -0.70389
H          1.91031       -6.15037        1.42609
H          0.49207       -3.39721       -3.16451
H          0.77468       -2.14821        5.40034
H          0.73351        3.02444        3.84876
H         -1.44618        3.85200        4.80057
H         -1.96720        2.90540        6.19391
H         -2.79632        2.72814        4.62535
H         -2.68922        0.39255        6.28724
H         -2.29752       -2.04015        4.47653
H         -4.30256       -1.40530        6.75296
H         -3.82749       -3.80462        4.89448
H         -5.76400       -3.27138        7.26257
H         -5.22069       -5.33871        4.12768
H         -6.30611       -6.58486        4.68981
H         -4.63633       -6.55580        5.29005
H         -7.68788       -6.23694        6.42497
H         -7.63044       -4.78898        7.42738
H         -5.55255       -5.98257        8.44987
H         -6.53486       -7.17907        9.97172
H         -9.03330       -7.29615        8.18106
H         -5.83038      -11.69510       12.93335
H         -5.38272      -10.16069       13.72761
H         -4.97443      -10.43973       12.02849
H        -11.78037      -10.03976       13.32203
H        -16.86603       -8.84469       13.66239
H        -14.86979       -5.17829       10.86971
H        -19.38640       -7.69540       12.84629
