95

C        -15.29547        1.05167       -3.66076
C        -15.82025        0.02854       -2.94370
C        -17.22288       -0.20859       -2.82916
N        -18.35964       -0.40283       -2.72878
C        -15.02086       -0.92803       -2.24914
N        -14.38056       -1.70997       -1.67818
C        -16.05853        2.06022       -4.46772
C        -15.15148        2.81621       -5.21760
C        -15.50444        3.86426       -6.05810
C        -16.86961        4.20933       -6.13102
C        -17.79297        3.46500       -5.38195
C        -17.40942        2.38067       -4.55135
S        -19.39884        4.06451       -5.60567
C        -18.86575        5.29171       -6.63354
C        -17.51533        5.26782       -6.85510
Br       -20.01102        6.56669       -7.38792
C        -13.77137        2.41899       -4.92826
O        -12.76626        2.89157       -5.42272
C        -13.86384        1.37106       -3.86883
C        -12.74623        0.99466       -3.23281
N        -11.44477        1.42764       -3.43390
C        -10.30862        1.00950       -2.79539
S        -10.34884       -0.23094       -1.58091
C         -8.69050       -0.16468       -1.35196
N         -8.09599       -1.03635       -0.39732
O         -7.19285       -1.77182       -0.81440
O         -8.50350       -0.96193        0.76877
C         -8.05694        0.74349       -2.15604
C         -9.00124        1.47709       -2.95704
C         -8.62719        2.58129       -3.80729
C         -7.59898        3.40862       -3.53751
C         -7.25918        4.58296       -4.31352
C         -6.22616        5.41842       -4.06822
C         -5.15929        5.19672       -3.02485
C         -6.05389        6.68371       -4.87609
N         -6.75755        7.76017       -4.21051
C         -6.25361        8.59595       -3.24866
C         -6.90740        9.57425       -2.61060
C         -6.28290       10.46649       -1.65817
C         -6.66585       10.63820       -0.37366
C         -7.71361        9.98676        0.38565
C         -7.87680       10.32779        1.67957
C         -7.03434       11.33380        2.32885
C         -6.07324       12.00961        1.66440
C         -5.84606       11.69266        0.26562
C         -4.98546       12.22437       -0.63329
C         -5.16178       11.40711       -1.85407
C         -4.38542       11.45378       -2.94608
C         -4.12050       13.37088       -0.39305
C         -4.15234       14.54079       -1.05931
C         -3.27766       15.73983       -0.97653
C         -2.65624       16.22708        0.12565
C         -1.96990       17.47613        0.13803
N         -1.41690       18.49758        0.14999
C         -2.72078       15.56689        1.38769
N         -2.78118       15.02731        2.41284
C         -3.40608       16.44957       -2.28978
C         -4.48995       15.89447       -2.97196
C         -5.08207       14.79383       -2.21163
O         -6.13455       14.26008       -2.48587
C         -4.92045       16.30297       -4.22777
C         -4.20553       17.33861       -4.86236
C         -3.10234       17.89938       -4.19961
C         -2.68071       17.46546       -2.91193
S         -2.37556       19.13845       -5.16509
C         -3.49439       18.91901       -6.41111
C         -4.41547       17.94231       -6.14733
Br        -3.47772       19.90879       -8.00162
H        -14.74534        4.41947       -6.60281
H        -18.18204        1.87098       -3.98781
H        -16.99262        5.97759       -7.48538
H        -12.81034        0.28393       -2.42047
H        -11.37030        2.14573       -4.16467
H         -6.98466        0.90128       -2.14811
H         -9.23844        2.77142       -4.68687
H         -7.01483        3.24366       -2.63756
H         -7.95174        4.83544       -5.11680
H         -5.08743        4.15555       -2.69925
H         -5.34316        5.82125       -2.14557
H         -4.17128        5.45065       -3.42683
H         -6.46936        6.56003       -5.88344
H         -4.99369        6.93002       -5.01516
H         -7.74626        7.85082       -4.42200
H         -5.20471        8.41002       -3.02316
H         -7.95837        9.75861       -2.81607
H         -8.34412        9.24412       -0.08911
H         -8.65115        9.85983        2.28021
H         -7.21175       11.52120        3.38372
H         -5.45505       12.74612        2.16341
H         -3.54394       12.12882       -3.02803
H         -4.57021       10.80423       -3.79565
H         -3.39966       13.19099        0.39912
H         -5.76980       15.82037       -4.70357
H         -1.80623       17.92884       -2.46841
H         -5.20847       17.65608       -6.82847
