133

C          0.49072        4.57975       -6.76792
C          0.89585        3.38082       -6.28883
C          1.98757        2.65649       -6.85455
N          2.88112        2.06743       -7.32388
C          0.31630        2.79145       -5.13037
N         -0.17524        2.30912       -4.18686
C          1.12308        5.35179       -7.88493
C          0.73788        6.68626       -7.75253
C          1.07326        7.69851       -8.64160
C          1.88207        7.35447       -9.74203
C          2.30507        6.02223       -9.87785
C          1.92549        4.99928       -8.96490
S          3.31124        5.84050      -11.27341
C          3.15918        7.47247      -11.67966
C          2.36943        8.17701      -10.81293
Br         3.98982        8.24620      -13.16970
C         -0.11205        6.86355       -6.57556
O         -0.33956        7.93319       -6.05490
C         -0.53087        5.48099       -6.16886
C         -1.70011        5.17880       -5.56640
C         -2.78363        6.10120       -5.13924
C         -3.56735        5.77698       -4.01543
C         -4.55963        6.66998       -3.59828
C         -4.76577        7.88803       -4.27401
C         -4.05712        8.18252       -5.41873
C         -3.10296        7.26604       -5.86492
C         -5.78366        8.65590       -3.59816
C         -6.27829        7.91656       -2.50580
C         -5.55021        6.56281       -2.41304
C         -6.54169        5.38448       -2.62343
C         -7.26928        5.36074       -3.97461
C         -4.70795        6.42147       -1.11124
C         -5.44323        6.51467        0.22073
C         -7.31195        8.42543       -1.72284
C         -7.82210        9.70121       -2.01087
C         -7.28805       10.44627       -3.07734
C         -6.27369        9.92080       -3.88340
C         -8.90024       10.26773       -1.19142
C         -8.62591       10.99014       -0.09713
C         -9.62794       11.56426        0.78688
C         -9.42332       11.84336        2.08557
C        -10.36637       12.48990        2.96952
C         -9.91584       12.64213        4.22609
C         -8.58361       12.10148        4.44599
S         -7.96663       11.41626        2.94527
C         -7.86767       12.11098        5.58802
C         -8.24183       12.70284        6.85845
C         -7.27700       12.64435        7.79052
C         -6.06592       11.99548        7.33575
S         -6.26256       11.38796        5.71925
C         -4.93600       11.87962        8.05456
C         -3.63024       11.24058        7.59167
C         -3.44574        9.73718        7.88817
C         -3.17323        9.50999        9.42966
C         -3.41098       10.68995       10.38852
C         -4.43747       10.70993       11.24788
O         -2.44138       11.69034       10.49107
C         -2.25418       12.62657        9.37699
C         -2.25003       11.82352        8.05466
C         -1.31628       11.62233        6.89187
C         -1.27120       10.34645        6.43221
C         -2.22959        9.22825        6.95528
C         -2.76664        8.50800        5.70959
C         -0.93031       13.38828        9.62422
C         -0.85957       14.24218       10.90820
C         -0.92684       13.53569       12.27252
C          0.15512       12.52386       12.55576
C          0.02863       11.39270       13.26948
C          1.13220       10.53084       13.62152
C          0.77403        9.44638       14.32594
C         -0.65739        9.34518       14.56470
S         -1.45740       10.80317       13.96282
C         -1.31298        8.31454       15.13777
C         -0.73473        7.06693       15.61582
C         -1.62250        6.23042       16.17623
C         -2.95911        6.76505       16.21556
S         -3.06396        8.29496       15.39794
C         -4.00692        6.20782       16.82778
H          0.70747        8.71105       -8.49362
H          2.26256        3.98481       -9.14833
H          2.14797        9.23312      -10.91451
H         -1.95785        4.13944       -5.37547
H         -3.39897        4.85564       -3.46438
H         -4.22073        9.10349       -5.96707
H         -2.58704        7.51429       -6.78706
H         -7.30849        5.39869       -1.83894
H         -6.00815        4.43123       -2.52005
H         -7.89697        6.24605       -4.11649
H         -7.92262        4.48353       -4.03220
H         -6.57146        5.29562       -4.81538
H         -3.91876        7.18650       -1.09766
H         -4.18402        5.45592       -1.12787
H         -5.80479        7.52905        0.41000
H         -4.75276        6.27725        1.03848
H         -6.28208        5.81709        0.28029
H         -7.71949        7.85015       -0.89731
H         -7.66319       11.44496       -3.28796
H         -5.87784       10.50084       -4.71006
H         -9.91424       10.03096       -1.49475
H         -7.58321       11.17062        0.16533
H        -10.59136       11.79351        0.33665
H        -11.33511       12.83336        2.63297
H        -10.49221       13.11872        5.00598
H         -9.20033       13.17069        7.03182
H         -7.37555       13.05358        8.78684
H         -4.95628       12.30557        9.05180
H         -3.67189       11.34407        6.49764
H         -4.35491        9.17912        7.62689
H         -2.14505        9.15994        9.58925
H         -3.79719        8.66213        9.74464
H         -5.18907        9.92891       11.25581
H         -4.54270       11.51660       11.96587
H         -3.06899       13.35624        9.40255
H         -1.70148       11.02049        8.57030
H         -0.72503       12.42091        6.46404
H         -0.58352       10.07818        5.63232
H         -1.63086        8.49822        7.51499
H         -3.38723        9.17196        5.09858
H         -3.36041        7.62944        5.98010
H         -1.93942        8.15688        5.07888
H         -0.08382       12.69233        9.62668
H         -0.77553       14.07500        8.78087
H         -1.66262       14.99069       10.87927
H          0.07646       14.81809       10.87607
H         -1.93102       13.13146       12.42086
H         -0.80655       14.31549       13.03749
H          1.14551       12.79727       12.19865
H          2.15338       10.77029       13.35904
H          1.48840        8.72136       14.68866
H          0.31471        6.82576       15.52487
H         -1.37575        5.25701       16.57795
H         -3.92568        5.26740       17.36024
H         -4.97653        6.69773       16.83430
