99

C         -1.89723       -0.61451       -0.37266
C         -1.91221       -1.87817        0.12461
C         -0.98461       -2.87756       -0.29279
N         -0.22813       -3.69005       -0.64155
C         -2.82365       -2.27806        1.14317
N         -3.58078       -2.60075        1.96091
C         -0.92506       -0.04488       -1.35170
C         -0.98608        1.34970       -1.26996
C         -0.27831        2.21268       -2.09657
C          0.53087        1.63747       -3.10025
C          0.61014        0.23820       -3.18558
C         -0.10809       -0.62401       -2.31579
S          1.65433       -0.24453       -4.47643
C          1.94964        1.35573       -4.92338
C          1.30423        2.26877       -4.13394
Br         3.04830        1.83351       -6.36328
C         -2.00805        1.76926       -0.30061
O         -2.21181        2.90175        0.08519
C         -2.75151        0.51589        0.05400
C         -4.04827        0.53692        0.41188
C         -4.83883        1.77826        0.54929
C         -4.98675        2.49980        1.72904
C         -5.74762        3.73733        1.81242
N         -5.87942        4.28659        3.04030
C         -5.27090        3.70936        4.11552
C         -4.53899        2.55725        4.00603
N         -4.39911        1.94517        2.80982
C         -3.90842        1.90623        5.11499
N         -3.40800        1.37848        6.02327
C         -5.45103        4.38035        5.37036
N         -5.58336        4.89962        6.39658
C         -6.36542        4.35332        0.67275
C         -6.23657        3.59770       -0.55208
C         -5.48805        2.28628       -0.59619
N         -5.51568        1.68597       -1.80021
S         -6.39121        2.66139       -2.80156
N         -6.71642        3.90510       -1.77187
C         -7.14872        5.66246        0.67538
S         -8.52322        5.79738       -0.40144
C         -8.86528        7.46005       -0.09225
C         -8.05832        7.88024        0.94898
C         -7.07755        6.86256        1.38879
C         -6.14572        7.14574        2.40662
C         -6.29606        8.42055        2.99009
F         -5.48086        8.74135        4.00801
C         -7.23429        9.38394        2.55760
F         -7.26828       10.57508        3.17684
C         -8.12701        9.17387        1.49913
C         -9.86466        8.07803       -0.92591
C        -10.67015        9.07807       -0.53371
C        -11.64578        9.73637       -1.39582
C        -12.08157       11.00133       -1.25035
C        -13.10340       11.63352       -2.05534
C        -13.39465       12.89084       -1.68119
C        -12.61033       13.37010       -0.55412
S        -11.45232       12.12489       -0.07165
C        -12.72216       14.55433        0.08270
C        -13.67934       15.61496       -0.17852
C        -13.58622       16.65911        0.66220
C        -12.53958       16.52213        1.65258
S        -11.68339       15.01724        1.43050
C        -12.24066       17.42990        2.59846
C        -11.17570       17.30232        3.57363
C        -10.13686       18.16884        3.66273
C         -9.20203       17.59547        4.60244
C         -7.95119       17.96754        4.92773
C         -7.22744       17.06513        5.80019
C         -5.94260       17.07834        6.19740
C         -5.66394       15.89328        7.02760
C         -6.81172       15.19434        7.19098
C         -7.81923       15.85701        6.39471
C         -9.08527       15.50784        6.10208
C         -9.77724       16.36080        5.15208
C        -10.96259       16.20862        4.54187
C         -4.40200       15.51318        7.61629
C         -3.21505       15.80926        7.07017
H         -0.39469        3.28902       -2.00628
H         -0.03342       -1.69618       -2.46738
H          1.36359        3.34115       -4.27782
H         -4.63613       -0.36963        0.51192
H         -5.36374        6.50022        2.76803
H         -8.77823        9.97866        1.19018
H         -9.94807        7.71314       -1.94874
H        -10.64564        9.44210        0.48829
H        -12.05639        9.12668       -2.19816
H        -13.59596       11.12286       -2.87197
H        -14.14429       13.49432       -2.17402
H        -14.41627       15.56213       -0.96749
H        -14.22904       17.52806        0.61802
H        -12.79833       18.36191        2.64679
H         -9.96334       19.05269        3.07177
H         -7.46517       18.84172        4.51699
H         -5.19965       17.81398        5.93520
H         -6.95090       14.27633        7.73816
H         -9.55716       14.61274        6.48489
H        -11.64505       15.38238        4.66723
H         -4.43454       14.93153        8.53468
H         -3.13268       16.35368        6.13420
H         -2.29053       15.48710        7.53719
