85

C         -6.75359        4.76902       -4.94808
C         -7.84554        4.50403       -5.70909
C         -8.02000        5.01937       -7.02730
N         -8.16723        5.42410       -8.10386
C         -8.89961        3.63327       -5.29015
N         -9.75016        2.92981       -4.95931
C         -5.58023        5.60995       -5.36712
C         -4.54638        5.41240       -4.45423
C         -3.26414        5.93425       -4.58027
C         -2.99405        6.73114       -5.70814
C         -4.04489        7.02029       -6.59097
C         -5.35108        6.48199       -6.42824
S         -3.51048        8.07430       -7.85393
C         -1.91575        8.03614       -7.29962
C         -1.75829        7.31293       -6.14885
Br        -0.49932        8.89291       -8.17587
C         -4.97342        4.56482       -3.34805
O         -4.24462        4.24703       -2.43116
C         -6.40418        4.18453       -3.62200
C         -7.11870        3.46238       -2.73983
C         -6.67074        2.98440       -1.44531
C         -5.61509        2.16705       -1.28007
C         -5.21910        1.75129        0.06687
C         -4.10738        1.00268        0.29289
C         -3.71665        0.60522        1.60571
N         -3.41322        0.29271        2.68194
C         -3.25110        0.57909       -0.76595
N         -2.56676        0.23347       -1.63730
C         -6.09231        2.19597        1.16266
C         -7.13772        3.01087        0.91275
O         -7.45357        3.42580       -0.38220
C         -7.98982        3.52299        1.95727
S         -7.33842        3.78681        3.55634
C         -8.81661        4.33893        4.23550
C         -9.78307        4.40416        3.25495
C         -9.32001        3.92779        1.95735
C        -10.15347        3.87720        0.82680
C        -11.45569        4.34401        1.08773
F        -12.33211        4.34252        0.06968
C        -11.89608        4.81425        2.35553
F        -13.16763        5.23073        2.47227
C        -11.08276        4.86779        3.50153
C         -8.84719        4.66147        5.62611
C         -9.15767        3.71371        6.52437
C         -9.17047        3.91341        7.96673
C         -9.52742        2.98666        8.87314
C         -9.39377        3.12654       10.30620
C         -9.56943        1.97478       10.97573
C         -9.89467        0.84282       10.12114
S        -10.15740        1.40909        8.47329
C         -9.92685       -0.46180       10.45790
C         -9.57760       -1.04072       11.74122
C         -9.49829       -2.38078       11.72894
C         -9.81958       -2.97426       10.44815
S        -10.32242       -1.74738        9.31309
C         -9.73580       -4.28681       10.17315
C        -10.11440       -4.83330        8.92532
S        -11.70624       -5.42161        8.56418
C        -11.30904       -5.80766        6.91191
C        -10.00588       -5.50958        6.72518
C         -9.35161       -5.00022        7.82487
O         -8.02512       -4.71837        7.68123
C         -7.86444       -5.09063        6.35725
N         -6.53130       -4.97412        5.84160
O         -6.36817       -5.32943        4.66571
O         -5.65000       -4.55210        6.59971
C         -9.02511       -5.55279        5.72238
H         -2.49631        5.70337       -3.84632
H         -6.11019        6.75572       -7.15152
H         -0.80978        7.17626       -5.64266
H         -8.14708        3.17387       -2.92920
H         -5.03159        1.86660       -2.14737
H         -5.87756        1.86431        2.17345
H         -9.88144        3.52616       -0.15831
H        -11.45754        5.23243        4.44822
H         -8.59563        5.67376        5.92517
H         -9.37228        2.70720        6.16614
H         -8.80140        4.87438        8.32056
H         -9.12646        4.06235       10.77842
H         -9.46313        1.89227       12.04836
H         -9.35539       -0.44661       12.61628
H         -9.21721       -2.97470       12.58817
H         -9.38602       -4.98083       10.93133
H        -12.04663       -6.22066        6.23803
H         -9.10781       -5.88012        4.69498
