90

C        -15.35587        6.98555        0.13578
C        -15.29730        8.21834        0.71049
C        -16.45081        8.99880        0.95293
N        -17.39766        9.64712        1.13567
C        -14.05727        8.77285        1.16433
N        -13.05237        9.22697        1.51746
C        -16.58776        6.21672       -0.22542
C        -16.21940        4.87440       -0.30727
C        -17.05048        3.83794       -0.69937
C        -18.36520        4.16948       -1.05600
C        -18.77834        5.50866       -0.94752
C        -17.90287        6.55383       -0.52437
S        -20.44039        5.65917       -1.41061
C        -20.55670        4.01602       -1.79323
C        -19.40268        3.32018       -1.56228
Br       -22.10918        3.21559       -2.47055
C        -14.80366        4.68937       -0.01600
O        -14.34064        3.60239        0.22963
C        -14.20645        6.06206       -0.06249
C        -12.98698        6.36036       -0.54552
N        -11.86781        5.63940       -0.93296
C        -11.36176        4.45765       -0.47250
S        -11.68324        3.86830        1.13046
C        -11.05770        2.35838        0.74128
N        -11.28071        1.27793        1.63438
O        -10.35089        0.98270        2.39002
O        -12.37500        0.70102        1.55099
C        -10.25154        2.38472       -0.36561
C        -10.38030        3.64003       -1.05223
C         -9.51068        3.98872       -2.14223
C         -9.80671        4.68426       -3.25965
C         -8.72654        5.21243       -4.08000
C         -8.74738        6.43150       -4.65840
C         -9.99056        7.26751       -4.78023
C         -7.46741        7.06970       -5.15340
N         -7.01972        8.11416       -4.22465
C         -6.40608        7.92471       -2.99341
C         -6.50701        6.89926       -2.14126
C         -5.80064        6.75349       -0.88559
C         -5.15235        5.63507       -0.51805
C         -4.48066        5.43512        0.74358
C         -3.77711        4.29333        0.81028
C         -3.84961        3.48226       -0.39318
S         -4.95945        4.23451       -1.54538
C         -3.18829        2.33562       -0.64960
C         -2.20019        1.67351        0.18121
C         -1.65849        0.57757       -0.37763
C         -2.18273        0.26666       -1.69344
S         -3.42825        1.41024       -2.12416
C         -1.78938       -0.77367       -2.45445
C         -2.31318       -1.17399       -3.78298
C         -2.64174       -0.23911       -4.77515
C         -3.24402       -0.63378       -5.96874
C         -3.44481       -1.99342       -6.21375
C         -3.04494       -2.97759       -5.29705
C         -2.47667       -2.54017       -4.07839
C         -3.19254       -4.45300       -5.54709
O         -1.89410       -5.01364       -5.66671
N         -4.10386       -2.34348       -7.45876
O         -5.27568       -1.96838       -7.59605
O         -3.45126       -2.98540       -8.29106
H        -16.67013        2.82164       -0.76959
H        -18.27905        7.57103       -0.48559
H        -19.27791        2.26159       -1.75278
H        -12.78732        7.40384       -0.79940
H        -11.31064        6.11588       -1.63884
H         -9.61622        1.56332       -0.67441
H         -8.46879        3.72794       -1.96925
H        -10.81637        4.97303       -3.48883
H         -7.77696        4.67793       -4.03074
H        -10.37382        7.54961       -3.79563
H        -10.76444        6.71296       -5.32360
H         -9.80620        8.18735       -5.34440
H         -7.65352        7.52786       -6.13300
H         -6.66553        6.33812       -5.30737
H         -6.60517        8.89958       -4.72493
H         -5.75060        8.75872       -2.74319
H         -7.15929        6.07187       -2.36872
H         -5.84750        7.60540       -0.21236
H         -4.55391        6.14625        1.55493
H         -3.22309        3.99243        1.68786
H         -1.91295        2.03959        1.15695
H         -0.90242       -0.02898        0.10326
H         -1.03139       -1.44843       -2.05898
H         -2.45832        0.82212       -4.62614
H         -3.55308        0.12124       -6.68803
H         -2.16720       -3.29003       -3.34965
H         -3.76030       -4.68358       -6.45171
H         -3.71118       -4.92994       -4.70900
H         -1.98944       -5.85148       -6.15131
