99

C        -12.31194       -0.46700        1.63755
C        -11.71063       -1.06008        2.69877
C        -12.44144       -1.63721        3.77612
N        -13.03836       -2.05851        4.67639
C        -10.29926       -1.18913        2.78101
N         -9.14644       -1.35324        2.79903
C        -13.73416       -0.64613        1.20336
C        -13.90327       -0.02747       -0.03944
C        -15.06556       -0.10238       -0.79976
C        -16.11557       -0.91069       -0.31131
C        -15.95379       -1.54591        0.92883
C        -14.78027       -1.40750        1.71332
S        -17.32988       -2.51660        1.31650
C        -18.09538       -2.12263       -0.13418
C        -17.37764       -1.25124       -0.90902
Br       -19.75867       -2.82218       -0.63612
C        -12.65449        0.60996       -0.48064
O        -12.48073        1.19169       -1.53301
C        -11.66406        0.37716        0.61763
C        -10.53301        1.10299        0.65330
N        -10.07245        1.99006       -0.31544
C        -10.24001        3.35711       -0.22020
S        -10.53064        4.14980        1.29693
C        -10.73274        5.63940        0.54659
N        -11.05458        6.78478        1.32940
O        -10.26998        7.73803        1.25497
O        -12.11266        6.75030        1.96940
C        -10.53235        5.61189       -0.80760
C        -10.26322        4.27943       -1.27241
C        -10.03624        3.93036       -2.65905
C        -10.04505        4.78981       -3.69842
C         -9.66696        4.52448       -5.06100
C         -8.71526        3.55983       -5.34195
S         -8.19395        3.60413       -6.95753
C         -9.21167        4.91834       -7.29524
C        -10.04933        5.29390       -6.24923
C        -11.03384        6.30609       -6.56130
C        -12.23155        6.55070       -5.65028
C        -12.07578        7.65422       -4.61505
C        -10.93420        6.98870       -7.83490
C         -9.97633        6.51165       -8.72214
N         -9.15605        5.48129       -8.50517
S         -9.90193        7.33899      -10.20238
C        -11.14575        8.39285       -9.72852
C        -11.65912        8.07723       -8.48593
N        -12.66289        8.78726       -7.89787
C        -13.65222        9.55502       -8.44853
S        -14.15612       10.91741       -7.50039
C        -15.26276       11.39956       -8.66973
N        -16.01307       12.59751       -8.47335
O        -15.96061       13.43111       -9.38559
O        -16.67856       12.68647       -7.43465
C        -15.32300       10.55969       -9.75184
C        -14.41566        9.44764       -9.61873
C        -14.32982        8.35861      -10.56750
C        -15.08809        8.18229      -11.66791
C        -14.88195        7.09794      -12.61761
C        -15.82095        6.52832      -13.38860
C        -17.27848        6.65734      -13.43527
C        -18.11327        6.48834      -12.37837
C        -19.49993        6.19510      -12.55051
N        -20.61584        5.92337      -12.71678
C        -17.62648        6.33134      -11.05160
N        -17.24228        6.16060       -9.96604
C        -17.69416        6.33476      -14.81857
C        -16.69552        5.53695      -15.37694
C        -15.47282        5.60568      -14.53356
O        -14.41356        5.05736      -14.74877
C        -16.89958        4.80309      -16.53754
C        -18.16001        4.92465      -17.18322
C        -19.08800        5.85896      -16.69125
C        -18.86224        6.60543      -15.51571
S        -20.50739        5.91730      -17.67197
C        -19.96771        4.63980      -18.63109
C        -18.71138        4.20335      -18.30054
Br       -20.99700        3.89637      -20.00826
H        -15.13265        0.39276       -1.76496
H        -14.72189       -1.95600        2.64555
H        -17.70991       -0.88817       -1.87423
H         -9.87353        1.11274        1.51615
H        -10.34720        1.64500       -1.24096
H        -10.59961        6.49917       -1.42372
H         -9.80690        2.88789       -2.86856
H        -10.24628        5.82865       -3.49269
H         -8.23727        2.86641       -4.66368
H        -12.50470        5.61266       -5.15183
H        -13.10187        6.78330       -6.27640
H        -11.43117        7.36014       -3.78903
H        -13.05210        7.88721       -4.17555
H        -11.65640        8.57026       -5.03612
H        -11.44162        9.19439      -10.39124
H        -12.51371        8.99384       -6.91264
H        -16.00286       10.72448      -10.57867
H        -13.60021        7.58070      -10.35239
H        -15.87347        8.89046      -11.91784
H        -13.84251        6.79403      -12.75850
H        -16.13856        4.12048      -16.90544
H        -19.62070        7.29100      -15.14956
H        -18.20586        3.39101      -18.80836
