102

C         -5.21980       -2.72279        0.19894
C         -6.12496       -3.71289        0.39076
C         -5.79537       -5.09724        0.31503
N         -5.53367       -6.22534        0.24882
C         -7.48597       -3.45091        0.72399
N         -8.59614       -3.23542        0.98675
C         -3.74982       -2.88726       -0.04007
C         -3.13560       -1.64017        0.10841
C         -1.78050       -1.40706       -0.10137
C         -0.97213       -2.50519       -0.46872
C         -1.56951       -3.76909       -0.58694
C         -2.95959       -3.97954       -0.38810
S         -0.39756       -4.97267       -0.99776
C          0.84939       -3.83634       -1.04158
C          0.43170       -2.56080       -0.77196
Br         2.63004       -4.27981       -1.41844
C         -4.12294       -0.60618        0.44953
O         -3.87286        0.53560        0.77835
C         -5.46417       -1.26292        0.30030
C         -6.58504       -0.54922        0.09186
C         -6.66138        0.92230        0.05583
C         -6.91664        1.73549        1.16479
C         -7.02104        3.17451        1.05854
N         -7.29174        3.89828        2.16911
C         -7.42615        3.24999        3.35692
C         -7.30788        1.88399        3.44949
N         -7.07140        1.11899        2.35544
C         -7.41549        1.17673        4.69019
N         -7.49679        0.62028        5.70485
C         -7.70063        4.07974        4.49045
N         -7.92762        4.73760        5.42102
C         -6.84293        3.86863       -0.16321
C         -6.46008        3.06524       -1.28158
C         -6.42817        1.56550       -1.18196
N         -6.16596        0.95131       -2.35098
S         -5.89134        2.14533       -3.46105
N         -6.03647        3.46772       -2.48771
C         -6.95131        5.36014       -0.22739
C         -7.35297        6.19096       -1.20557
C         -7.24877        7.64535       -1.16715
C         -7.14601        8.18837       -2.39777
C         -7.08633        7.14604       -3.40791
S         -7.93019        5.73492       -2.77976
C         -6.25107        7.12561       -4.46194
C         -5.54135        8.23624       -5.06276
C         -4.68529        7.87147       -6.03097
C         -4.63516        6.44173       -6.25413
S         -5.67447        5.61164       -5.14398
C         -3.88274        5.83815       -7.18486
C         -3.75669        4.41275       -7.48007
C         -4.73513        3.60109       -7.90131
C         -4.56171        2.15530       -8.27018
C         -3.23328        1.54965       -8.25874
C         -2.15872        2.21452       -7.83318
S         -2.10540        3.83860       -7.25993
N         -5.65915        1.51071       -8.60255
C         -6.64073        2.50786       -8.44002
C         -6.12424        3.72126       -8.08327
S         -7.34061        4.86443       -7.94106
C         -8.56470        3.61356       -7.92045
C         -8.03600        2.42395       -8.41720
C         -9.86232        3.91644       -7.41155
C        -10.61309        2.95995       -6.83779
C        -11.88329        3.20660       -6.19637
C        -13.00548        3.71856       -6.71956
C        -13.41736        4.19678       -8.05007
C        -13.05077        3.69837       -9.26011
C        -13.52427        4.22276      -10.49701
N        -13.89315        4.65714      -11.51120
C        -12.24895        2.53226       -9.39392
N        -11.63514        1.54980       -9.54051
C        -14.54460        5.15455       -7.81705
C        -14.94826        5.04770       -6.48135
C        -14.06845        4.13151       -5.74475
O        -14.17389        3.82928       -4.57357
C        -16.03081        5.72813       -5.93377
C        -16.78291        6.55925       -6.79272
C        -16.37111        6.69404       -8.12716
C        -15.23933        6.02081       -8.65209
S        -17.42455        7.74803       -9.00141
C        -18.40857        7.98644       -7.65220
C        -17.96791        7.33053       -6.53399
Br       -19.95341        9.04452       -7.68878
H         -1.36804       -0.40672       -0.00276
H         -3.35117       -4.97994       -0.53008
H          1.08742       -1.69828       -0.77116
H         -7.52987       -1.01526       -0.16746
H         -6.62318        5.83602        0.69775
H         -7.18908        8.20987       -0.24801
H         -6.97665        9.23544       -2.59901
H         -5.71929        9.26520       -4.78415
H         -4.09169        8.56968       -6.60539
H         -3.21613        6.46052       -7.78182
H         -3.16965        0.52522       -8.60733
H         -1.20762        1.68656       -7.83810
H         -8.60942        1.52557       -8.60276
H        -10.19065        4.95236       -7.39930
H        -10.24680        1.93752       -6.74116
H        -11.87063        2.95414       -5.13213
H        -16.29572        5.60085       -4.88729
H        -14.97563        6.18798       -9.68910
H        -18.46750        7.37233       -5.57351
