122

C         -2.19061       -1.19606       -0.11603
C         -2.60646       -2.43676       -0.47689
C         -1.70776       -3.51317       -0.71238
N         -0.97215       -4.39167       -0.91699
C         -3.98408       -2.76369       -0.60646
N         -5.11435       -3.01497       -0.72680
C         -0.78970       -0.76441        0.16236
C         -0.83706        0.44395        0.86549
C          0.28490        1.17897        1.22551
C          1.54948        0.67130        0.85372
C          1.61112       -0.55246        0.16884
C          0.45055       -1.28637       -0.19257
S          3.25020       -0.99525       -0.16041
C          3.84307        0.41441        0.55348
C          2.85928        1.23171        1.04110
Br         5.66840        0.82008        0.66613
C         -2.22862        0.88209        1.06297
O         -2.60156        1.80631        1.75502
C         -3.05059       -0.03523        0.21333
C         -4.22098        0.34424       -0.32651
C         -4.90700        1.63418       -0.11719
C         -5.84298        1.87997        0.88968
C         -6.60658        3.10731        0.94435
N         -7.54102        3.22204        1.91376
C         -7.72184        2.22379        2.81503
C         -6.96981        1.08012        2.76394
N         -6.03920        0.89490        1.79492
C         -7.12014        0.01354        3.70483
N         -7.25640       -0.83754        4.48363
C         -8.77097        2.43317        3.76423
N         -9.63740        2.58898        4.52690
C         -6.45601        4.17723        0.00572
C         -5.45869        3.95428       -1.00065
C         -4.68643        2.66232       -1.06571
N         -3.82554        2.60618       -2.09864
S         -3.94044        4.04648       -2.90017
N         -5.08846        4.79555       -1.98333
C         -7.27235        5.44266        0.02602
C         -7.60486        6.15979       -1.15477
C         -8.31952        7.35984       -1.10216
C         -8.81177        7.81004        0.13074
C         -8.53585        7.13692        1.30320
C         -7.75406        5.98256        1.24386
C         -9.49467        9.06012       -0.04167
C         -9.33981        9.50373       -1.36741
C         -8.68665        8.37902       -2.22059
C         -7.43555        8.91646       -2.97080
C         -6.73175        7.94890       -3.92285
C         -9.75339        7.74654       -3.15918
C        -10.37904        8.69344       -4.18313
C         -9.72300       10.80181       -1.70820
C        -10.31534       11.62042       -0.72571
C        -10.60391       11.07689        0.54377
C        -10.17120        9.80789        0.90119
C        -10.56610       13.05032       -0.99577
C        -10.54917       13.95315       -0.00213
C        -10.61111       15.37674       -0.14534
C         -9.63908       16.17946        0.34414
C        -10.05433       17.56053        0.13788
C        -11.35269       17.49125       -0.50321
C        -11.68173       16.20748       -0.68015
F        -12.11629       18.54365       -0.82325
C         -9.36030       18.65061        0.48735
C         -9.76778       20.03643        0.30128
C         -8.75810       20.82779        0.72394
C         -7.69557       19.97455        1.25697
C         -8.05306       18.69748        1.10737
F         -7.31738       17.63833        1.46681
C         -8.80266       22.26572        0.67014
C         -7.69890       23.01687        0.53887
C         -7.72173       24.45194        0.42411
C         -8.20229       25.33338        1.31011
C         -8.82450       25.21272        2.63655
C         -8.48192       24.35155        3.62743
C         -9.15752       24.29931        4.87957
N         -9.72356       24.23935        5.89092
C         -7.33738       23.50304        3.54333
N         -6.38146       22.84413        3.52682
C         -9.68942       26.42130        2.80118
C         -9.36659       27.33006        1.78609
C         -8.41452       26.73582        0.83604
O         -7.95539       27.27150       -0.15080
C         -9.88210       28.61730        1.69937
C        -10.76679       29.03545        2.71735
C        -11.13085       28.11666        3.71384
C        -10.62590       26.79286        3.75736
S        -12.22318       28.82843        4.84780
C        -12.16288       30.32118        4.06421
C        -11.38531       30.31359        2.93744
Br       -13.06938       31.83863        4.68292
H          0.18325        2.13042        1.73998
H          0.57295       -2.20338       -0.75875
H          3.04801        2.18632        1.51779
H         -4.71637       -0.26170       -1.08005
H         -7.29912        5.78451       -2.12323
H         -8.87679        7.51288        2.26249
H         -7.53048        5.51530        2.19910
H         -6.69564        9.27949       -2.24567
H         -7.71478        9.79222       -3.57000
H         -6.31399        7.08577       -3.40580
H         -5.88733        8.45154       -4.40645
H         -7.39608        7.59333       -4.71552
H        -10.57275        7.31802       -2.56514
H         -9.31391        6.89868       -3.69863
H        -11.08869        9.37740       -3.70663
H        -10.94333        8.12249       -4.92770
H         -9.63121        9.28564       -4.71667
H         -9.52965       11.18935       -2.70418
H        -11.12401       11.65795        1.30049
H        -10.33984        9.43952        1.90662
H        -10.64185       13.35991       -2.03400
H        -10.40602       13.64839        1.03242
H         -8.72713       15.85940        0.82575
H        -12.60088       15.83244       -1.09824
H        -10.70081       20.35918       -0.13473
H         -6.77380       20.32465        1.69397
H         -9.78917       22.72563        0.69073
H         -6.71809       22.55296        0.43999
H         -7.33172       24.81354       -0.52994
H         -9.58260       29.28234        0.89375
H        -10.95939       26.13647        4.55236
H        -11.23354       31.17806        2.30225
