87

C         -8.83401       -5.34083       -9.85305
C         -9.17183       -6.52192       -9.27847
C         -8.68103       -7.77545       -9.75053
N         -8.29895       -8.79722      -10.15363
C        -10.01067       -6.62088       -8.13050
N        -10.71718       -6.73299       -7.21386
C         -7.87914       -5.15738      -10.98697
C         -7.41347       -3.84175      -10.96368
C         -6.49827       -3.32059      -11.86998
C         -6.06465       -4.16253      -12.91600
C         -6.56921       -5.47104      -12.98197
C         -7.47373       -5.99234      -12.02159
S         -5.95780       -6.30053      -14.36952
C         -5.05696       -4.95879      -14.85518
C         -5.17272       -3.88973      -14.00827
Br        -4.01182       -4.93347      -16.40902
C         -8.12015       -3.05571       -9.94526
O         -7.91548       -1.88325       -9.70732
C         -9.15764       -3.97965       -9.37202
C        -10.21184       -3.53222       -8.67071
C        -10.45735       -2.14771       -8.30331
C        -10.71837       -1.73746       -7.05464
C        -10.96780       -0.37179       -6.66047
C        -11.20414       -0.22752       -5.34269
C        -11.16772       -1.47637       -4.59725
S        -10.75573       -2.80543       -5.68094
C        -11.40689       -1.65872       -3.28416
C        -11.75857       -0.64883       -2.30474
C        -11.90124       -1.12456       -1.05686
C        -11.65333       -2.54784       -0.93734
S        -11.32663       -3.24166       -2.50471
C        -11.63462       -3.23501        0.22053
C        -11.23637       -4.59450        0.29304
S        -12.25920       -5.97055        0.14813
C        -10.91393       -7.14261        0.14424
C         -9.78584       -6.40280        0.34121
C         -9.97566       -5.03800        0.45368
O         -8.87713       -4.25376        0.66267
C         -7.90983       -5.22994        0.64009
N         -6.57477       -4.76681        0.84236
O         -5.82035       -5.52146        1.47118
O         -6.27430       -3.66510        0.36702
C         -8.38065       -6.53043        0.45351
C        -11.25325       -8.52172       -0.05644
C        -10.49837       -9.47894       -0.62199
C        -11.00430      -10.79770       -0.96634
C        -10.21867      -11.47173       -1.82533
C         -9.03467      -10.73192       -2.21866
S         -8.86441       -9.32479       -1.18369
C         -8.24274      -10.94999       -3.28485
C         -8.39330      -11.96790       -4.30505
C         -7.73925      -11.68158       -5.44088
C         -7.03929      -10.40795       -5.39817
S         -6.92772       -9.87433       -3.74224
C         -6.60296       -9.75477       -6.49033
C         -6.03624       -8.43763       -6.55831
C         -5.12952       -7.96343       -7.49467
C         -4.87248       -6.56138       -7.37801
C         -5.58317       -5.97441       -6.35138
S         -6.52755       -7.13807       -5.53943
C         -5.61634       -4.58436       -5.95920
C         -5.83104       -4.06034       -4.69516
C         -5.78245       -2.63517       -4.67069
C         -5.55343       -2.10963       -5.92129
S         -5.41299       -3.32660       -7.11222
H         -6.17340       -2.28638      -11.79571
H         -7.84920       -7.00164      -12.14948
H         -4.66928       -2.94177      -14.15705
H        -10.98242       -4.21339       -8.31942
H        -10.40308       -1.41668       -9.10889
H        -10.95843        0.44449       -7.36542
H        -11.40606        0.73037       -4.88676
H        -11.88228        0.39564       -2.55695
H        -12.14176       -0.50256       -0.20489
H        -11.83847       -2.72373        1.15602
H         -7.75136       -7.40426        0.38627
H        -12.28131       -8.79027        0.18508
H        -11.95905      -11.16503       -0.61682
H        -10.46776      -12.44204       -2.23074
H         -9.01051      -12.84604       -4.17369
H         -7.76495      -12.30320       -6.32683
H         -6.73041      -10.24502       -7.45559
H         -4.67997       -8.59271       -8.25347
H         -4.19891       -6.01572       -8.02815
H         -6.00045       -4.66555       -3.81186
H         -5.90692       -2.03205       -3.77949
H         -5.46523       -1.06774       -6.19544
