100

C         -7.12620        8.51629        5.37998
C         -7.72932        8.10268        6.51671
C         -7.35160        8.58219        7.80645
N         -7.05800        8.96266        8.86886
C         -8.79550        7.15820        6.52791
N         -9.64467        6.36896        6.54390
C         -5.98422        9.48147        5.26060
C         -5.78386        9.76284        3.90587
C         -4.69988       10.46752        3.39925
C         -3.75591       10.96345        4.32092
C         -3.98843       10.77238        5.69146
C         -5.09760       10.03021        6.18423
S         -2.75356       11.53205        6.63536
C         -1.90754       12.01765        5.25749
C         -2.51447       11.64645        4.08862
Br        -0.29805       12.97371        5.32035
C         -6.79984        9.10676        3.08035
O         -7.01655        9.30913        1.90325
C         -7.47778        8.13630        3.98347
C         -8.05252        7.04588        3.44950
N         -8.14825        6.67886        2.10932
C         -8.59215        5.48058        1.61088
S         -9.71544        4.50722        2.50017
C         -9.51366        3.19570        1.46602
N        -10.04438        1.90841        1.82367
O         -9.78492        0.97634        1.05077
O        -10.68680        1.80662        2.87689
C         -8.80032        3.51740        0.33502
C         -8.27778        4.85801        0.39436
C         -7.44550        5.45739       -0.62470
C         -7.11889        4.93520       -1.82649
C         -6.30409        5.62993       -2.78814
S         -6.31568        7.35271       -2.87814
C         -5.23228        7.41632       -4.19585
C         -4.86800        6.14303       -4.59523
C         -5.47856        5.10914       -3.78493
C         -5.18577        3.64985       -4.04121
C         -4.59036        3.39790       -5.43173
C         -3.46091        4.38325       -5.77260
O         -2.95469        4.00925       -7.06430
C         -1.83313        4.77438       -7.48888
C         -3.99322        5.82702       -5.77317
C         -4.93352        8.69201       -4.75637
C         -3.85924        9.43766       -4.41856
C         -2.76493        8.96890       -3.49359
C         -3.63254       10.84243       -4.94219
N         -4.88495       11.54299       -5.17220
C         -5.39870       11.94185       -6.38160
C         -5.02233       11.52173       -7.59503
C         -5.62189       11.91445       -8.84342
C         -5.79227       13.14203       -9.34668
C         -5.49376       14.50096       -8.88284
C         -4.34849       14.94149       -8.30299
C         -4.11160       16.31699       -8.01066
N         -3.92506       17.43811       -7.77331
C         -3.22562       14.08760       -8.09331
N         -2.27113       13.43941       -7.96353
C         -6.52103       15.38393       -9.50521
C         -7.11642       14.67873      -10.55706
C         -6.66913       13.27690      -10.55531
O         -6.99302       12.41661      -11.34684
C         -8.03082       15.23447      -11.44115
C         -8.37872       16.59109      -11.25166
C         -7.83791       17.28148      -10.15466
C         -6.92372       16.68721       -9.25120
S         -8.42138       18.90592      -10.09108
C         -9.31457       18.70671      -11.50798
C         -9.23680       17.44269      -12.02825
Br       -10.31367       20.08541      -12.28752
H         -4.56728       10.58294        2.32718
H         -5.18209        9.88987        7.25579
H         -2.11123       11.85391        3.10447
H         -8.43562        6.27283        4.10479
H         -7.67116        7.33532        1.48245
H         -8.61400        2.80657       -0.46182
H         -7.04916        6.43887       -0.37898
H         -7.47468        3.95168       -2.11917
H         -6.09687        3.04952       -3.93664
H         -4.47710        3.30029       -3.27979
H         -5.37683        3.47599       -6.19503
H         -4.22161        2.36602       -5.49865
H         -2.65776        4.26880       -5.03219
H         -1.47341        4.35997       -8.43462
H         -1.02585        4.72429       -6.75260
H         -2.11676        5.81491       -7.67084
H         -4.56578        6.00093       -6.69374
H         -3.14684        6.52295       -5.79863
H         -5.67439        9.09067       -5.44580
H         -2.56935        7.89687       -3.58231
H         -3.01955        9.20609       -2.45623
H         -1.82014        9.47308       -3.73081
H         -3.00208       10.80302       -5.83715
H         -3.07795       11.42771       -4.19944
H         -5.28296       11.98392       -4.34622
H         -6.21792       12.64976       -6.26255
H         -4.26344       10.74810       -7.68408
H         -5.98614       11.06016       -9.42073
H         -8.44640       14.64444      -12.25346
H         -6.55516       17.26898       -8.41319
H         -9.74942       17.12744      -12.92919
