106

C        -14.36652       -8.20897        7.49506
C        -13.20848       -8.41241        8.17773
C        -12.77838       -9.71277        8.57677
N        -12.44314      -10.77219        8.92105
C        -12.41475       -7.32917        8.64007
N        -11.79060       -6.44365        9.04172
C        -15.34846       -9.26202        7.12709
C        -16.59835       -8.65596        6.97752
C        -17.74470       -9.33065        6.58402
C        -17.60525      -10.69087        6.22675
C        -16.34991      -11.30428        6.36545
C        -15.20906      -10.61501        6.84335
S        -16.39799      -12.94546        5.82803
C        -17.97324      -12.76549        5.25072
C        -18.55611      -11.58468        5.62554
Br       -18.81298      -14.03028        4.15532
C        -16.48656       -7.19744        7.14185
O        -17.41539       -6.42051        7.21394
C        -15.01381       -6.91388        7.19355
C        -14.49179       -5.74922        6.76917
C        -15.27645       -4.60598        6.31069
C        -15.20402       -4.03793        5.09308
C        -16.01508       -2.93158        4.63351
C        -15.82620       -2.61669        3.34093
C        -14.84211       -3.45019        2.67569
S        -14.16835       -4.61760        3.82405
C        -14.39527       -3.34775        1.40940
C        -14.72636       -2.33325        0.42165
C        -13.77243       -2.19828       -0.51733
C        -12.66350       -3.11171       -0.31917
S        -13.12621       -4.38944        0.76436
C        -11.41758       -2.94292       -0.78424
C        -10.25639       -3.80385       -0.41869
C         -9.95965       -4.91971       -1.21192
C         -8.83222       -5.70951       -0.88869
N         -8.49371       -6.76638       -1.67311
C         -9.28239       -7.05786       -2.72351
C        -10.40157       -6.31950       -3.00663
N        -10.73980       -5.23825       -2.27739
C         -8.06688       -5.39728        0.24865
C         -8.41126       -4.31331        1.07789
C         -9.50504       -3.48758        0.72772
N         -9.82543       -2.41155        1.49656
C         -9.09493       -2.18468        2.60839
C         -8.05008       -2.99618        2.96165
N         -7.70641       -4.05322        2.20749
C         -6.93617       -6.32258        0.57876
C         -5.79754       -5.99972        1.20974
C         -4.76441       -6.96898        1.52130
C         -3.81585       -6.81700        2.45714
C         -2.73240       -7.74456        2.69082
C         -1.75646       -7.23169        3.45712
C         -2.00333       -5.84783        3.83485
S         -3.68723       -5.44739        3.53213
C         -1.07038       -4.93066        4.14848
C          0.35954       -5.16002        4.20976
C          1.07649       -4.04575        4.00259
C          0.25471       -2.87031        3.78669
S         -1.39368       -3.19588        4.24738
C          0.70767       -1.74737        3.20802
C         -0.06327       -0.56339        2.85743
C          0.36346        0.52180        2.18925
C          1.65642        0.93960        1.62789
C          2.86329        0.86808        2.23899
C          4.06410        1.35621        1.65078
N          5.04863        1.73502        1.16623
C          3.00940        0.40309        3.57984
N          3.14113        0.03914        4.67302
C          1.34975        1.79438        0.44044
C         -0.00182        2.14955        0.50485
C         -0.66871        1.45657        1.62323
O         -1.81792        1.61145        1.97710
C         -0.60906        3.04121       -0.37320
C          0.20258        3.64936       -1.35853
C          1.55158        3.27103       -1.44770
C          2.13520        2.30972       -0.58441
S          2.36386        4.15315       -2.69340
C          0.98015        5.05224       -3.04608
C         -0.11836        4.66259       -2.32736
Br         0.95784        6.45561       -4.28691
H        -18.68350       -8.80015        6.45394
H        -14.25902      -11.13647        6.88675
H        -19.57584      -11.30919        5.38466
H        -13.41471       -5.63046        6.65148
H        -16.01076       -4.22743        7.02108
H        -16.71677       -2.42073        5.27804
H        -16.35983       -1.81908        2.83862
H        -15.60384       -1.70428        0.47662
H        -13.78440       -1.45258       -1.30020
H        -11.16711       -2.08402       -1.39788
H         -8.98359       -7.90785       -3.32449
H        -11.06106       -6.57143       -3.82772
H         -9.37801       -1.32989        3.20999
H         -7.45029       -2.82655        3.84786
H         -7.09390       -7.35620        0.27614
H         -5.61259       -4.97280        1.51797
H         -4.75622       -7.86378        0.90345
H         -2.69865       -8.72724        2.24146
H         -0.84349       -7.76090        3.68839
H          0.79983       -6.13744        4.34417
H          2.15590       -4.02354        3.95324
H          1.74424       -1.76416        2.89482
H         -1.12679       -0.61191        3.09657
H         -1.66135        3.29209       -0.26987
H          3.17918        2.05000       -0.72229
H         -1.09997        5.10778       -2.43773
