90

C         -9.20143        3.41458        4.55745
C         -8.59587        4.19578        5.49103
C         -8.96454        4.15283        6.86821
N         -9.25989        4.11678        7.98594
C         -7.60304        5.16507        5.15588
N         -6.79065        5.94376        4.88380
C        -10.34925        2.48381        4.78155
C        -10.97285        2.27088        3.55047
C        -12.05994        1.43029        3.35338
C        -12.55790        0.73575        4.47471
C        -11.94191        0.93657        5.72088
C        -10.83080        1.80627        5.89587
S        -12.71343       -0.01147        6.94544
C        -13.80842       -0.66917        5.84140
C        -13.63494       -0.20960        4.56437
Br       -15.12946       -1.90982        6.31521
C        -10.27134        2.99066        2.48290
O        -10.71428        3.17955        1.37137
C         -8.98038        3.45300        3.09128
C         -7.82820        3.63697        2.42394
C         -7.62180        3.36848        1.03477
S         -6.44445        4.31758        0.14820
C         -6.64225        3.37331       -1.20608
C         -7.54449        2.34330       -1.04547
C         -8.14593        2.36025        0.22685
C         -7.62934        1.45400       -2.28634
C         -7.10463        0.04552       -1.98574
C         -9.03789        1.41671       -2.87237
C         -6.65044        2.22291       -3.17336
C         -6.09959        3.30379       -2.51456
S         -5.00219        4.16277       -3.41726
C         -5.22489        3.08513       -4.78671
C         -6.15635        2.09425       -4.48975
C         -4.47074        3.34181       -5.97245
C         -4.58870        2.59391       -7.08059
C         -3.82799        2.86672       -8.28935
C         -3.56357        1.98594       -9.26543
C         -2.91676        2.30108      -10.52057
C         -3.11289        1.36294      -11.46280
C         -3.95153        0.27184      -10.99636
S         -4.02316        0.30770       -9.23366
C         -4.72409       -0.53644      -11.74424
C         -4.85244       -0.55395      -13.18662
C         -5.92069       -1.24088      -13.62542
C         -6.71711       -1.82545      -12.56350
S         -5.90834       -1.61733      -11.03491
C         -7.92951       -2.38667      -12.73283
C         -8.84637       -2.92214      -11.69711
C         -8.39492       -3.57540      -10.54904
C         -9.27989       -3.97318       -9.54744
F         -8.73673       -4.45614       -8.42091
C        -10.66669       -3.83610       -9.68252
C        -11.13126       -3.25153      -10.87097
C        -10.23333       -2.79990      -11.84955
F        -10.74031       -2.23209      -12.95545
C        -11.58481       -4.29091       -8.63684
S        -13.11970       -3.54652       -8.29671
C        -13.49668       -4.63661       -6.99319
C        -12.46298       -5.49360       -6.86727
C        -11.43404       -5.31338       -7.76401
O        -10.39087       -6.18722       -7.67991
C        -10.81145       -6.94379       -6.60589
N         -9.90969       -7.98298       -6.19873
O        -10.27879       -8.67959       -5.24387
O         -8.84891       -8.11017       -6.82084
C        -12.05957       -6.58619       -6.08176
H        -12.48479        1.29505        2.36199
H        -10.38340        1.89006        6.88118
H        -14.23821       -0.52285        3.72037
H         -6.92244        3.90517        2.96218
H         -8.89085        1.64423        0.54661
H         -7.73995       -0.46827       -1.25537
H         -6.08860        0.07356       -1.57011
H         -7.06662       -0.56491       -2.89498
H         -9.74007        0.93735       -2.18053
H         -9.05735        0.85760       -3.81458
H         -9.41708        2.42429       -3.07949
H         -6.45771        1.31445       -5.17785
H         -3.75908        4.16373       -5.95741
H         -5.28093        1.75481       -7.11650
H         -3.51419        3.89981       -8.42044
H         -2.38106        3.22531      -10.68531
H         -2.75588        1.44743      -12.47880
H         -4.17003       -0.03197      -13.84246
H         -6.19044       -1.32946      -14.66875
H         -8.35274       -2.40013      -13.73683
H         -7.34323       -3.77581      -10.37551
H        -12.19368       -3.12841      -11.06385
H        -14.42362       -4.55942       -6.44232
H        -12.56749       -7.06412       -5.25585
