97

C         -9.30228        3.81931        4.51102
C        -10.61807        4.06103        4.71047
C        -11.06674        5.05158        5.62978
N        -11.42066        5.88690        6.36035
C        -11.64689        3.42062        3.95336
N        -12.48692        2.88137        3.36596
C         -8.16741        4.46974        5.22656
C         -7.04525        4.41091        4.39995
C         -5.78545        4.87042        4.75779
C         -5.60262        5.26886        6.09776
C         -6.71256        5.28700        6.95787
C         -8.02241        4.94107        6.52863
S         -6.22852        5.71173        8.56529
C         -4.59561        5.74355        8.13337
C         -4.38728        5.58851        6.79067
Br        -3.20134        5.92552        9.37145
C         -7.31848        3.60636        3.20599
O         -6.52774        3.43602        2.30251
C         -8.70337        3.03819        3.40122
C         -9.16156        1.94753        2.77247
C         -8.39830        1.24792        1.79906
S         -8.55291        1.76785        0.16081
C         -7.39307        0.65624       -0.38252
C         -6.93696       -0.17815        0.61745
C         -5.94097       -1.26821        0.37079
C         -7.53675        0.15177        1.90085
C         -7.20881       -0.59288        3.09822
C         -7.64685       -0.43530        4.35815
C         -7.19106       -1.25136        5.46607
C         -7.31248       -2.58756        5.53021
C         -6.79807       -3.35487        6.65138
C         -6.75842       -4.69013        6.77419
C         -6.06463       -5.36850        7.84634
C         -5.75842       -6.64022        7.55075
C         -6.23227       -7.05144        6.24169
S         -7.36587       -5.84677        5.61958
C         -5.77038       -8.08232        5.50961
C         -4.60592       -8.89107        5.81082
C         -4.13090       -9.54666        4.74094
C         -4.92794       -9.35851        3.54060
S         -6.39166       -8.50277        3.92516
C         -4.53855       -9.79830        2.33408
C         -5.20085       -9.67136        1.06457
C         -5.05606      -10.50331       -0.03754
C         -4.31405      -11.77474       -0.01899
O         -4.17005      -12.46643        0.97635
C         -3.66961      -12.04160       -1.30550
C         -4.04281      -11.32298       -2.50837
C         -3.12247      -11.49809       -3.52708
S         -1.92303      -12.63573       -3.06606
C         -2.70684      -12.99931       -1.57835
C         -2.23755      -14.20651       -0.82289
F         -3.02608      -14.54484        0.22124
F         -2.22453      -15.29560       -1.63977
F         -0.97666      -14.05695       -0.34889
C         -2.99629      -10.84820       -4.87263
F         -4.01610      -10.01787       -5.18244
F         -1.86630      -10.09465       -4.94103
F         -2.91673      -11.76893       -5.86627
C         -5.24729      -10.48906       -2.57081
O         -5.89269      -10.36316       -3.59749
C         -5.58490       -9.91572       -1.26569
C         -6.35134       -8.78627       -1.01624
S         -6.17370       -8.32999        0.63021
C         -7.15565       -7.96829       -1.91337
S         -7.33145       -6.27294       -1.69466
C         -8.34623       -6.08510       -3.06446
C         -8.85957       -4.77455       -3.40168
O         -9.18401       -4.35372       -4.50375
O         -9.02078       -3.98041       -2.31598
C         -8.52702       -7.29490       -3.71542
C         -7.89391       -8.37171       -3.00944
C         -9.27238       -7.45483       -4.93287
C         -9.90471       -8.57258       -5.31785
H         -4.95075        4.79478        4.06570
H         -8.83574        4.94757        7.24718
H         -3.40949        5.59776        6.32226
H        -10.12905        1.50630        2.99595
H         -7.10390        0.65401       -1.42443
H         -5.59472       -1.26552       -0.66809
H         -6.39084       -2.24554        0.57279
H         -5.06357       -1.14145        1.01318
H         -6.48874       -1.39789        2.95273
H         -8.33387        0.35088        4.64044
H         -6.73876       -0.69890        6.28734
H         -7.78009       -3.12837        4.70945
H         -6.32759       -2.76558        7.43665
H         -5.77013       -4.87246        8.75997
H         -5.19941       -7.28997        8.20872
H         -4.10959       -8.88993        6.77058
H         -3.22329      -10.13670        4.75318
H         -3.58196      -10.31977        2.29942
H         -9.41217       -3.16127       -2.68006
H         -7.96269       -9.40252       -3.33132
H         -9.32203       -6.60232       -5.61024
H         -9.92635       -9.46999       -4.70901
H        -10.43160       -8.60838       -6.26630
