120

C         -3.24835       -1.33245        2.38846
C         -2.15739       -1.78910        3.05618
C         -2.04815       -3.13178        3.51085
N         -1.96513       -4.22660        3.88579
C         -1.01733       -0.96897        3.29410
N         -0.09024       -0.29581        3.49559
C         -4.44447       -2.11727        1.96644
C         -5.08847       -1.41031        0.94543
C         -6.27884       -1.80420        0.34937
C         -6.87918       -2.99194        0.81772
C         -6.23993       -3.71693        1.83703
C         -5.02020       -3.29504        2.43013
S         -7.14380       -5.13365        2.24514
C         -8.34510       -4.77339        1.11557
C         -8.11364       -3.61390        0.42660
Br        -9.84864       -5.85440        0.83390
C         -4.39092       -0.14811        0.67024
O         -4.56509        0.55781       -0.29902
C         -3.41934        0.00885        1.80075
C         -3.05860        1.19885        2.30701
C         -3.54952        2.49061        1.82005
C         -4.70462        3.04345        2.39741
C         -5.16396        4.25840        1.91431
C         -4.45440        4.94442        0.90327
C         -3.31867        4.40151        0.32965
C         -2.87483        3.15860        0.78300
C         -5.13896        6.17521        0.59465
C         -6.32040        6.24991        1.36344
C         -6.43856        5.02827        2.27638
C         -7.72184        4.21391        1.94043
C         -7.82141        3.68605        0.50821
C         -6.48116        5.45638        3.76845
C         -5.26433        6.23308        4.26944
C         -7.19829        7.30860        1.22594
C         -6.86888        8.30287        0.30753
C         -5.67420        8.25095       -0.43627
C         -4.79801        7.17886       -0.29410
C         -7.80338        9.38513        0.05965
C         -7.73007       10.55773        0.70369
C         -8.57698       11.72230        0.38159
C         -8.95620       12.66364        1.35704
C         -9.82748       13.77266        1.05354
N        -10.26141       14.56100        2.07241
C         -9.80024       14.32018        3.33277
C         -8.89679       13.31398        3.59742
N         -8.49431       12.47705        2.61644
C         -8.32688       13.08644        4.89648
N         -7.86481       12.92375        5.95149
C        -10.34552       15.12598        4.38120
N        -10.78050       15.73527        5.27319
C        -10.25916       14.04381       -0.27082
C         -9.85748       13.14234       -1.29284
C         -9.01428       11.94829       -0.95739
N         -8.75600       11.18962       -2.03749
S         -9.49300       11.88775       -3.33375
N        -10.16881       13.20743       -2.60053
C        -11.14735       15.16991       -0.63218
C        -10.76155       16.39494       -1.02235
C        -11.64716       17.53546       -1.15721
C        -11.00450       18.71107       -1.03679
C         -9.57855       18.53687       -0.78095
S         -9.10711       16.89390       -1.22835
C         -8.77297       19.37633       -0.10151
C         -9.12182       20.68566        0.41643
C         -8.26392       21.14097        1.34183
C         -7.18825       20.21748        1.64592
S         -7.16808       18.91211        0.49305
C         -6.38860       20.34631        2.71845
C         -5.35946       19.42849        3.18332
C         -4.58031       19.54020        4.27424
C         -4.41174       20.55084        5.33382
C         -4.34072       21.89472        5.18804
C         -4.06361       22.78070        6.27069
N         -3.85116       23.50619        7.15089
C         -4.42511       22.53897        3.92072
N         -4.48820       23.09314        2.90496
C         -3.96018       19.81383        6.55394
C         -3.52768       18.54394        6.16396
C         -3.83665       18.31305        4.73903
O         -3.58430       17.30789        4.10855
C         -2.92914       17.63488        7.03271
C         -2.76056       18.02199        8.38478
C         -3.25412       19.27134        8.79120
C         -3.87819       20.17369        7.89488
S         -2.98183       19.53524       10.47703
C         -2.18621       18.05730       10.64420
C         -2.13977       17.33035        9.48393
Br        -1.44206       17.47601       12.26252
H         -6.74263       -1.19247       -0.41996
H         -4.60052       -3.88113        3.24036
H         -8.78055       -3.21458       -0.32849
H         -2.46620        1.28954        3.21192
H         -5.24117        2.52942        3.18824
H         -2.79868        4.91018       -0.47383
H         -2.00776        2.70609        0.30854
H         -8.60974        4.83281        2.12950
H         -7.79864        3.35514        2.61956
H         -7.80739        4.49627       -0.22693
H         -8.76255        3.14155        0.37786
H         -7.00843        2.99199        0.27575
H         -6.59894        4.56926        4.40373
H         -7.37018        6.07772        3.94486
H         -4.36511        5.61025        4.26425
H         -5.43185        6.56078        5.30084
H         -5.07159        7.12706        3.66919
H         -8.12206        7.35364        1.79298
H         -5.43891        9.04034       -1.14758
H         -3.88465        7.13549       -0.87683
H         -8.51882        9.17195       -0.72775
H         -7.01430       10.68508        1.51576
H        -12.20028       14.97634       -0.45445
H        -12.72127       17.44073       -1.24698
H        -11.50984       19.66739       -1.01261
H        -10.00122       21.23299        0.10764
H         -8.37444       22.08871        1.85055
H         -6.58826       21.20227        3.35462
H         -5.28470       18.49819        2.61463
H         -2.59392       16.66401        6.67701
H         -4.25193       21.11567        8.28039
H         -1.67601       16.35437        9.40479
