101

C         -7.28938        1.74231       -4.43275
C         -6.22208        2.21259       -5.10979
C         -4.89234        2.13533       -4.60686
N         -3.80977        2.04971       -4.19179
C         -6.35309        2.79498       -6.40418
N         -6.45858        3.29723       -7.43592
C         -7.25180        1.06658       -3.07869
C         -8.54685        0.64331       -2.80286
C         -8.99337        0.12326       -1.59670
C         -8.02011       -0.12796       -0.61768
C         -6.67433        0.07894       -0.95365
C         -6.26934        0.71133       -2.16463
S         -5.63928       -0.56071        0.27018
C         -6.94449       -0.89834        1.28462
C         -8.16035       -0.60428        0.72935
Br        -6.73264       -1.60297        3.00192
C         -9.21663        0.54245       -4.08174
O         -9.47928       -0.56497       -4.53144
C         -8.71674        1.66841       -4.89376
C         -9.48767        2.44206       -5.68894
C        -10.95585        2.54159       -5.89987
C        -12.02395        1.74638       -5.68176
C        -13.42916        2.14138       -5.74898
C        -14.23124        1.38785       -4.95701
C        -13.48366        0.37095       -4.22993
S        -12.01502        0.11293       -5.14355
C        -13.72368       -0.25411       -3.05597
C        -14.91090       -0.24753       -2.23063
C        -14.76387       -0.88046       -1.04986
C        -13.43509       -1.43428       -0.80542
S        -12.45859       -1.15413       -2.20455
C        -13.07458       -2.03857        0.34683
C        -11.83080       -2.66007        0.74348
S        -11.58733       -2.95150        2.47499
C        -10.71848       -3.17993        0.11906
C        -10.27989       -3.44753       -1.23280
O        -11.00176       -3.67123       -2.18874
N         -8.92378       -3.69588       -1.14180
C         -8.12729       -4.04452       -2.30938
C         -8.27491       -3.08481       -3.48404
C         -8.58511       -4.09656        0.14413
O         -7.58747       -4.69487        0.51029
C         -9.70917       -3.70428        0.97555
C        -10.12316       -3.87706        2.27492
C         -9.68531       -4.74748        3.33218
C         -8.99727       -4.35022        4.41401
C         -8.64912       -5.23015        5.50088
C         -8.27528       -5.88872        6.43438
C         -7.71639       -6.61379        7.53756
N         -6.59987       -7.40577        7.40236
C         -6.16219       -7.83562        8.62896
C         -7.07411       -7.40194        9.56739
C         -8.05862       -6.63439        8.87854
C         -4.91364       -8.48354        8.82876
C         -3.76783       -8.81347        8.98570
C         -2.36350       -8.85546        9.20217
C         -1.55918       -9.88831        8.92474
C         -0.13607       -9.82471        9.09748
S          0.81762      -11.21934        8.61359
C          0.74124       -8.86335        9.55566
C          0.70168       -7.51721       10.08827
O         -0.28099       -6.86528       10.40017
N          2.02551       -7.12664       10.22859
C          2.36419       -5.85111       10.83225
C          3.63649       -5.21348       10.30212
C          2.91615       -8.15426        9.98184
O          4.12221       -8.18160       10.15211
C          2.09942       -9.23879        9.49884
C          2.33346      -10.48943        9.00522
C          3.55944      -11.15646        8.76041
C          4.15791      -11.86755        9.72302
H        -10.03410       -0.12281       -1.44251
H         -5.21066        0.84261       -2.34349
H         -9.11001       -0.74486        1.22901
H         -8.99694        3.28408       -6.18041
H        -11.20347        3.53913       -6.27783
H        -13.77213        2.96614       -6.35833
H        -15.29509        1.53461       -4.84601
H        -15.84539        0.18049       -2.56578
H        -15.56935       -1.00114       -0.33716
H        -13.84210       -2.05667        1.12133
H         -8.42577       -5.04827       -2.62560
H         -7.07176       -4.07995       -2.01823
H         -9.31895       -2.93592       -3.77214
H         -7.74936       -3.46033       -4.36752
H         -7.84547       -2.11137       -3.23878
H        -10.00448       -5.78539        3.25633
H         -8.67487       -3.32011        4.52236
H         -6.10783       -7.55664        6.53491
H         -7.00487       -7.55903       10.63967
H         -8.88695       -6.10665        9.33710
H         -1.97779       -7.92709        9.59054
H         -1.99123      -10.80493        8.52522
H          2.44182       -6.00790       11.91344
H          1.53056       -5.15801       10.66547
H          4.52227       -5.78771       10.58672
H          3.75362       -4.20812       10.71865
H          3.61426       -5.13537        9.21062
H          4.03407      -11.03598        7.79016
H          3.72538      -11.98992       10.71091
H          5.11852      -12.33922        9.53856
