82

C         -6.41235       12.00023        1.02589
C         -6.00538       12.53722        2.20236
C         -5.87046       13.94093        2.41359
N         -5.75574       15.08231        2.58610
C         -5.73918       11.74095        3.34892
N         -5.51098       11.09282        4.28639
C         -6.84473       12.76550       -0.18333
C         -7.55754       11.90047       -1.01645
C         -8.11440       12.27269       -2.23394
C         -7.95729       13.61383       -2.64601
C         -7.24034       14.49223       -1.81974
C         -6.66074       14.08380       -0.59085
S         -7.18004       16.07853       -2.50488
C         -8.06461       15.59688       -3.85893
C         -8.42235       14.27589       -3.83313
Br        -8.50697       16.75734       -5.26113
C         -7.61337       10.54901       -0.44466
O         -8.31609        9.64579       -0.84674
C         -6.68870       10.56884        0.73716
C         -6.14512        9.45232        1.25106
C         -6.38725        8.15503        0.72362
O         -5.61198        7.59319       -0.29462
C         -7.29627        7.19060        1.06697
C         -8.40807        6.93533        1.92812
O         -8.96963        7.71407        2.67678
N         -8.71443        5.60632        1.70113
C         -7.93950        5.00881        0.72974
O         -8.00273        3.86127        0.31792
C         -7.03286        6.03629        0.33091
C         -6.02067        6.28375       -0.55403
C         -5.47039        5.42824       -1.54046
C         -4.91939        5.91581       -2.66408
C         -4.41290        5.07957       -3.74741
C         -3.83407        5.52896       -4.89497
O         -3.41703        4.64777       -5.91060
C         -3.60812        3.33193       -5.66858
C         -4.20342        2.86961       -4.48342
C         -4.29639        1.50425       -4.41422
S         -3.64278        0.78194       -5.83291
C         -3.24957        2.31543       -6.51592
O         -4.62560        3.70951       -3.51935
C         -3.53543        6.92418       -5.18584
C         -3.52041        7.45440       -6.41919
C         -3.26319        8.85967       -6.67589
C         -3.76237        9.56750       -7.70214
C         -3.50075       10.96927       -7.92900
C         -4.25950       11.50702       -8.89529
C         -5.20945       10.57529       -9.48683
S         -4.90469        8.95240       -8.87443
C         -6.21867       10.89018      -10.32337
C         -6.50836       12.21444      -10.84073
C         -7.64226       12.28713      -11.54951
C         -8.35000       11.03043      -11.64807
S         -7.44664        9.74674      -10.88658
C         -9.53466       10.90619      -12.26428
C        -10.35112        9.72827      -12.39929
C        -11.00313        9.03461      -11.44168
C        -11.86474        7.96193      -11.92854
C        -11.89713        7.80680      -13.26525
Si       -10.76776        9.03056      -14.11646
H         -8.64749       11.54761       -2.84298
H         -6.09891       14.81377       -0.01933
H         -8.99155       13.78761       -4.61517
H         -5.40582        9.48401        2.04329
H         -9.46186        5.12650        2.17279
H         -5.56880        4.35706       -1.38120
H         -4.89146        6.99276       -2.80811
H         -4.70398        0.89882       -3.61667
H         -2.77908        2.37990       -7.48626
H         -3.35748        7.57086       -4.33101
H         -3.74467        6.82742       -7.28083
H         -2.63049        9.36528       -5.94833
H         -2.77573       11.52893       -7.35350
H         -4.20230       12.55056       -9.16964
H         -5.87318       13.07113      -10.66909
H         -8.01205       13.19872      -11.99816
H         -9.96604       11.79233      -12.73004
H        -10.95630        9.26205      -10.38345
H        -12.44584        7.36071      -11.23947
H        -12.47694        7.08489      -13.81855
H        -11.43839       10.04468      -14.96950
H         -9.58378        8.40961      -14.75977
