133

C         -5.84036       -2.23683        2.12808
C         -5.05801       -3.01705        2.91360
C         -5.11003       -4.44010        2.90286
N         -5.14570       -5.60031        2.90678
C         -4.06970       -2.48824        3.79946
N         -3.26678       -2.07462        4.51873
C         -6.80801       -2.72007        1.08747
C         -7.21831       -1.62852        0.32128
C         -8.11168       -1.70516       -0.74406
C         -8.63344       -2.97280       -1.07645
C         -8.23331       -4.08048       -0.31525
C         -7.32996       -3.97307        0.77623
S         -8.97901       -5.52990       -0.89237
C         -9.80209       -4.69934       -2.10955
C         -9.55594       -3.35273       -2.11072
Br       -10.94001       -5.54054       -3.33702
C         -6.60410       -0.38690        0.79985
O         -6.74304        0.68943        0.25875
C         -5.82158       -0.75158        2.03407
C         -5.34221        0.17556        2.88433
C         -5.45225        1.62939        2.69890
C         -6.57765        2.30399        3.19160
C         -6.71472        3.65756        2.90590
C         -5.73065        4.35185        2.16599
C         -4.59132        3.69790        1.72455
C         -4.45700        2.32912        1.98821
C         -6.18031        5.71028        1.92956
C         -7.46285        5.87892        2.49116
C         -7.87916        4.59955        3.23411
C         -9.24063        4.05502        2.70340
C         -9.28058        3.65107        1.22377
C         -7.95814        4.89499        4.76571
C         -6.65609        5.35291        5.43897
C         -8.17796        7.06361        2.32369
C         -7.59797        8.10001        1.57986
C         -6.29768        7.94416        1.06191
C         -5.58274        6.74982        1.23747
C         -8.36161        9.32092        1.28774
C         -8.36956       10.39614        2.09419
C         -9.17394       11.60708        1.85850
C         -8.73160       12.89826        2.27159
N         -7.50587       13.43273        2.69459
C         -6.21568       12.82271        2.40019
C         -5.62077       13.30734        1.08823
C         -7.67006       14.72664        3.21349
C         -8.96970       15.10466        2.84248
C         -9.61482       13.98500        2.24154
C        -10.92041       13.82532        1.72654
C        -11.34724       12.58098        1.28164
C        -10.49412       11.48996        1.36992
C         -9.44164       16.40644        3.12365
C         -8.63919       17.30928        3.80464
C         -7.37075       16.92560        4.20887
C         -6.83610       15.64962        3.91560
C         -5.52277       15.26978        4.46216
C         -4.52456       16.13330        4.72844
C         -3.30126       15.71755        5.38921
C         -2.48331       16.48278        6.12949
C         -1.35647       15.95315        6.86290
C         -0.85074       16.80778        7.76263
C         -1.54232       18.08212        7.80328
S         -2.68910       18.18325        6.46137
C         -1.45525       18.99638        8.78696
C         -0.73768       18.84163       10.04162
C         -1.18307       19.66040       11.00721
C         -2.25257       20.52620       10.55895
S         -2.39371       20.47972        8.82308
C         -3.08903       21.17937       11.37811
C         -4.26100       21.92953       10.96346
C         -5.12932       22.58348       11.74390
C         -5.21034       22.85074       13.18242
C         -4.20370       23.25296       13.99524
C         -4.41034       23.60267       15.35998
N         -4.57556       23.87479       16.47274
C         -2.87090       23.45659       13.53639
N         -1.77175       23.62103       13.19649
C         -6.66351       22.89221       13.51229
C         -7.38517       22.99837       12.31857
C         -6.48025       22.88975       11.16125
O         -6.80180       22.95727        9.99385
C         -8.76959       23.11443       12.25858
C         -9.47866       23.12429       13.48186
C         -8.76174       22.97029       14.67918
C         -7.35282       22.83584       14.71505
S         -9.81645       22.97386       16.04625
C        -11.17383       23.22047       15.07641
C        -10.88622       23.26838       13.73828
Br       -12.90259       23.40923       15.77137
H         -8.39403       -0.81154       -1.29507
H         -7.08517       -4.87541        1.32306
H         -9.99943       -2.65763       -2.81389
H         -4.86031       -0.07383        3.82260
H         -7.34569        1.77160        3.74258
H         -3.83520        4.21761        1.14576
H         -3.58595        1.80403        1.60192
H        -10.02064        4.81068        2.86322
H         -9.54755        3.17797        3.28876
H         -8.73476        4.34408        0.57776
H        -10.31772        3.62323        0.86929
H         -8.86783        2.64726        1.07851
H         -8.30679        4.00187        5.29944
H         -8.70973        5.67524        4.94642
H         -5.89265        4.56853        5.42238
H         -6.84394        5.59641        6.49083
H         -6.24043        6.25051        4.97072
H         -9.17605        7.16828        2.73779
H         -5.84282        8.74904        0.48896
H         -4.59068        6.64127        0.81354
H         -8.93862        9.28816        0.36659
H         -7.80017       10.38253        3.01892
H         -6.31686       11.74135        2.36474
H         -5.52994       13.00538        3.22219
H         -6.26038       13.03360        0.24257
H         -4.63867       12.84972        0.93040
H         -5.49498       14.39441        1.07962
H        -11.60303       14.67072        1.70209
H        -12.36006       12.45808        0.90727
H        -10.88587       10.51717        1.07925
H        -10.44773       16.69581        2.83293
H         -9.01336       18.30111        4.04322
H         -6.79560       17.64579        4.78830
H         -5.41533       14.23586        4.76860
H         -4.62762       17.19221        4.50255
H         -3.07478       14.65627        5.31114
H         -0.99723       14.94352        6.72810
H         -0.02982       16.55987        8.41976
H          0.00904       18.08034       10.21493
H         -0.83443       19.63711       12.03085
H         -2.93504       21.04466       12.44430
H         -4.51798       21.84912        9.90429
H         -9.28022       23.19054       11.30196
H         -6.86268       22.69492       15.67233
H        -11.63236       23.41139       12.96583
