93

C         -0.41409        3.29130        2.65346
C         -0.50116        2.89602        3.94768
C          0.64018        2.59442        4.74211
N          1.56784        2.34137        5.39154
C         -1.74212        2.78956        4.64363
N         -2.74968        2.69662        5.21069
C          0.83685        3.54002        1.86928
C          0.49818        4.22750        0.69767
C          1.41241        4.58464       -0.28711
C          2.76426        4.22215       -0.09332
C          3.11690        3.53952        1.08083
C          2.16689        3.18540        2.07415
S          4.81279        3.20308        1.11795
C          5.05402        3.92146       -0.38986
C          3.90586        4.42010       -0.94411
Br         6.72885        4.02269       -1.22284
C         -0.95739        4.42978        0.61219
O         -1.55938        5.03832       -0.24969
C         -1.53273        3.68132        1.77037
C         -2.82301        3.31801        1.77733
N         -3.82592        3.61183        0.87184
C         -5.11712        3.14948        0.86117
S         -5.78721        2.21059        2.15463
C         -7.27793        2.04764        1.38599
N         -8.33449        1.28610        1.99847
O         -9.35784        1.12788        1.32025
O         -8.15772        0.84576        3.14141
C         -7.32284        2.68670        0.17101
C         -6.08137        3.34543       -0.12750
C         -5.83186        4.09333       -1.32959
C         -6.76915        4.70148       -2.07498
C         -6.45482        5.45084       -3.24732
S         -7.49027        6.77808       -3.64811
C         -6.60802        7.19579       -5.07409
C         -5.53296        6.34607       -5.20631
C         -5.46273        5.35450       -4.20236
S         -4.15575        4.18814       -4.36297
C         -3.43277        4.88524       -5.81755
S         -2.09343        4.23133       -6.56911
S         -4.25420        6.33151       -6.41213
C         -7.07126        8.31138       -5.82513
C         -6.90789        8.42196       -7.15358
C         -7.30512        9.60700       -7.94146
C         -7.23520       10.93691       -7.48233
C         -7.56499       12.05878       -8.31348
N         -7.45901       13.30573       -7.79150
C         -7.09776       13.47000       -6.48943
C         -6.79625       12.39866       -5.70608
N         -6.84048       11.14618       -6.20487
C         -6.45132       12.51342       -4.31967
N         -6.18017       12.62986       -3.20225
C         -7.12438       14.81081       -5.99199
N         -7.17544       15.89520       -5.58355
C         -8.01530       11.91172       -9.64876
C         -8.07860       10.58049      -10.15939
C         -7.71059        9.40786       -9.29020
N         -7.81131        8.23077       -9.93280
S         -8.35537        8.55535      -11.46188
N         -8.44247       10.20866      -11.39922
C         -8.32070       13.02919      -10.58068
C         -8.87413       14.22725      -10.31803
C         -9.39807       14.83938       -9.09412
C        -10.26745       14.29655       -8.21009
C        -10.71397       14.97505       -7.04206
N        -11.03062       15.49097       -6.05321
C        -10.79575       12.99092       -8.39080
N        -11.20543       11.90919       -8.52109
C         -9.05214       16.27657       -9.16156
C         -8.80853       16.59433      -10.49913
C         -8.71138       15.35333      -11.30477
O         -8.47863       15.27583      -12.49188
C         -8.67466       17.90208      -10.94628
C         -8.78339       18.93864       -9.98333
C         -8.88999       18.59485       -8.62678
C         -8.99046       17.26035       -8.18843
S         -8.92585       19.99156       -7.61564
C         -8.96191       21.02108       -8.94938
C         -8.84241       20.36608      -10.14732
Br        -9.15820       22.87636       -8.79328
H          1.08757        5.09737       -1.18826
H          2.51039        2.62946        2.93906
H          3.86446        4.90606       -1.91156
H         -3.17868        2.65814        2.55753
H         -3.50879        4.23229        0.11906
H         -8.19484        2.67394       -0.47374
H         -4.79031        4.18149       -1.62275
H         -7.81033        4.68225       -1.76018
H         -7.58042        9.09118       -5.26379
H         -6.46389        7.61440       -7.73014
H         -7.95653       12.85394      -11.59751
H         -8.54349       18.11816      -12.00269
H         -9.06949       17.05699       -7.12641
H         -8.83723       20.86616      -11.10748
