76

C        -12.15374       -1.05615       -3.75182
C        -13.19064       -0.29545       -4.18778
C        -14.37947       -0.83333       -4.77503
N        -15.35365       -1.23952       -5.24615
C        -13.20624        1.12704       -4.08401
N        -13.22824        2.28437       -3.99695
C        -12.11813       -2.55609       -3.72929
C        -10.96849       -2.96657       -3.05075
C        -10.65634       -4.29612       -2.77197
C        -11.55214       -5.29460       -3.21195
C        -12.68770       -4.90077       -3.93357
C        -12.98154       -3.53879       -4.21051
S        -13.63207       -6.27202       -4.40146
C        -12.57373       -7.34263       -3.63832
C        -11.50813       -6.72164       -3.04376
Br       -12.83390       -9.19788       -3.61173
C        -10.13354       -1.81840       -2.68072
O         -9.03015       -1.91026       -2.18254
C        -10.88743       -0.59151       -3.11257
C        -10.36411        0.63387       -2.92871
N         -9.21176        1.02917       -2.26525
C         -9.15885        1.44372       -0.95766
S        -10.13808        0.70490        0.26757
C         -9.30232        1.49685        1.49816
N         -9.59878        1.18559        2.85913
O         -9.82705        2.14511        3.60670
O         -9.55952       -0.00581        3.19053
C         -8.40161        2.42588        1.04349
C         -8.33984        2.42641       -0.39085
C         -7.48614        3.34397       -1.10393
C         -7.82638        3.98001       -2.23567
C         -7.01025        4.93410       -2.91373
O         -7.63476        5.91096       -3.67612
C         -6.70139        6.72191       -4.22077
C         -5.45505        6.30622       -3.84273
N         -4.25126        6.92736       -4.26763
O         -4.11036        7.09870       -5.48391
O         -3.44519        7.23067       -3.38017
C         -5.62619        5.13345       -3.05214
N         -4.58772        4.39946       -2.56374
C         -4.40678        3.05075       -2.50129
S         -3.21043        2.44688       -1.39238
C         -3.47674        0.80682       -1.80360
C         -4.45445        0.71373       -2.74670
C         -4.92881        1.97839       -3.15832
C         -5.80315        1.68970       -4.23115
C         -6.00982        0.36855       -4.47416
S         -5.15861       -0.77223       -3.54322
S         -7.08944        0.10152       -5.72466
C         -7.23027        1.80687       -6.02527
C         -6.45099        2.54079       -5.13812
C         -8.01839        2.30290       -7.11556
S         -7.64823        3.73421       -8.02765
C         -8.93622        3.47668       -9.17289
C         -9.60207        2.36560       -8.79536
C         -9.12329        1.75187       -7.66001
O         -9.79021        0.64336       -7.22840
C        -10.72612        0.55171       -8.23306
N        -11.58328       -0.57744       -8.12013
O        -11.67226       -1.30749       -9.11269
O        -12.17652       -0.71734       -7.04256
C        -10.67212        1.55174       -9.20740
H         -9.75425       -4.54738       -2.22039
H        -13.87564       -3.32175       -4.78204
H        -10.72547       -7.24535       -2.50798
H        -10.84558        1.52350       -3.31490
H         -8.52643        1.44133       -2.89521
H         -7.81189        3.06063        1.69596
H         -6.53914        3.58536       -0.62424
H         -8.81831        3.83517       -2.65695
H         -7.07363        7.52795       -4.83886
H         -3.73753        4.91542       -2.31629
H         -2.91886       -0.01071       -1.36631
H         -6.36640        3.61569       -5.18949
H         -9.08800        4.14591      -10.00886
H        -11.31540        1.64652      -10.07036
