90

C         -2.29786        1.26243       -6.69609
C         -1.65554        0.07469       -6.53855
C         -0.85615       -0.49430       -7.57372
N         -0.19603       -0.93857       -8.41516
C         -1.66350       -0.63152       -5.29655
N         -1.67479       -1.21747       -4.29727
C         -2.30352        2.12506       -7.91926
C         -2.62590        3.42574       -7.51948
C         -2.86501        4.48787       -8.37561
C         -2.79814        4.22390       -9.75459
C         -2.44635        2.93298      -10.18450
C         -2.18651        1.86370       -9.28031
S         -2.41808        2.85983      -11.91323
C         -2.91582        4.46752      -12.05859
C         -3.08890        5.09458      -10.85674
Br        -3.21247        5.31445      -13.70279
C         -2.84145        3.48649       -6.08047
O         -2.89315        4.50714       -5.42684
C         -2.96768        2.05697       -5.64581
C         -3.78457        1.69134       -4.64161
C         -4.57498        2.62920       -3.85322
C         -5.44869        2.36788       -2.87381
C         -6.21683        3.39855       -2.21206
C         -7.09756        2.92296       -1.32201
C         -7.08048        1.47585       -1.20809
S         -5.82775        0.79655       -2.25393
C         -7.91347        0.71868       -0.47334
C         -9.05104        1.17796        0.30525
C         -9.83497        0.18396        0.74754
C         -9.34665       -1.12581        0.39330
S         -7.79715       -1.03638       -0.39559
C         -9.97236       -2.29624        0.57693
N         -9.46093       -3.54808        0.28880
C        -10.11839       -4.72628        0.11193
S        -11.77551       -4.77315       -0.38434
C        -11.73761       -6.44575       -0.56267
N        -12.85683       -7.12744       -1.13481
O        -12.58976       -8.04162       -1.92632
O        -13.99013       -6.77275       -0.78884
C        -10.55215       -7.01151       -0.16563
C         -9.58747       -6.01539        0.21046
C         -8.22771       -6.29789        0.61868
C         -7.65436       -7.51399        0.65268
N         -6.33783       -7.85368        0.90753
C         -5.64406       -7.81639        2.08950
S         -6.35138       -7.31893        3.58572
C         -4.94892       -7.68022        4.45996
N         -4.91356       -7.54301        5.89213
O         -3.80848       -7.70072        6.43007
O         -5.97157       -7.30513        6.48800
C         -3.91341       -8.09987        3.65904
C         -4.31250       -8.20025        2.28653
C         -3.45060       -8.66670        1.22618
C         -2.10557       -8.58354        1.20550
C         -1.18919       -9.03696        0.12594
C          0.20053       -9.21783        0.34889
C          1.08911       -9.68192       -0.68993
N          2.41400       -9.76479       -0.50374
C          2.91458       -9.30321        0.66971
C          2.08549       -8.87189        1.68148
N          0.72878       -8.87628        1.54588
C          2.58638       -8.27550        2.88178
N          3.01167       -7.76397        3.83407
C          4.33983       -9.16729        0.72162
N          5.49040       -9.01304        0.75969
C          0.66363       -9.98266       -1.97103
C         -0.67137       -9.67146       -2.28159
C         -1.62496       -9.18460       -1.22602
N         -2.83416       -8.90078       -1.74308
S         -2.75373       -9.15799       -3.37704
N         -1.20918       -9.73965       -3.50663
H         -3.16439        5.45685       -7.98683
H         -1.96930        0.87717       -9.67512
H         -3.41857        6.12089      -10.74477
H         -3.95957        0.63677       -4.43980
H         -4.47904        3.68190       -4.10755
H         -6.09184        4.44938       -2.43096
H         -7.75142        3.56152       -0.74554
H         -9.26968        2.22297        0.47601
H        -10.74388        0.33498        1.31588
H        -10.96987       -2.31648        1.00907
H         -8.47221       -3.50705        0.03477
H        -10.38097       -8.08068       -0.18359
H         -7.59350       -5.45008        0.87152
H         -8.21302       -8.39747        0.35367
H         -6.00381       -8.54052        0.23211
H         -2.93347       -8.35997        4.04479
H         -3.95593       -9.12158        0.38101
H         -1.59470       -8.14769        2.06303
H          1.35075      -10.32879       -2.73562
