94

C         -2.08398        0.82889       -2.44157
C         -1.69785       -0.46534       -2.34691
C         -0.44415       -0.93573       -2.82265
N          0.58544       -1.32103       -3.20794
C         -2.56629       -1.47417       -1.83351
N         -3.27330       -2.28608       -1.41501
C         -1.32695        1.94240       -3.10604
C         -2.21320        2.99509       -3.32847
C         -1.86462        4.21158       -3.89730
C         -0.52366        4.39104       -4.29076
C          0.37720        3.33063       -4.10420
C         -0.00008        2.10040       -3.50112
S          1.94318        3.74668       -4.71085
C          1.42763        5.28455       -5.17918
C          0.11561        5.53270       -4.87941
Br         2.53645        6.52819       -6.03478
C         -3.55731        2.66494       -2.84671
O         -4.55920        3.28972       -3.12416
C         -3.39537        1.40501       -2.04702
C         -4.23111        1.07321       -1.04094
C         -5.35254        1.88470       -0.68427
S         -5.16836        3.10763        0.50474
C         -6.76290        3.73023        0.27501
C         -7.42873        2.98373       -0.69457
C         -6.65433        1.84603       -1.15217
C         -7.20468        0.82832       -2.12249
C         -8.69223        1.03170       -2.44563
C         -9.00432        2.52142       -2.60333
N        -10.36444        2.73628       -3.10980
C         -8.81744        3.21364       -1.23989
C         -7.16516        4.84647        1.08394
C         -8.02520        5.77627        0.64319
C         -8.52401        6.90321        1.40039
C         -9.48387        7.76171        0.98624
C        -10.27596        7.64983       -0.29597
C         -9.90051        8.92894        1.85359
N         -9.07080       10.07752        1.54410
C         -9.32862       11.03236        0.59156
C         -8.50725       12.01724        0.20044
C         -8.84666       12.92558       -0.88109
C         -7.98040       13.61052       -1.64469
C         -8.35648       14.35953       -2.82469
C         -7.32953       14.58668       -3.65986
C         -6.07973       14.02274       -3.18543
S         -6.24723       13.56490       -1.48509
C         -5.01951       13.68040       -3.93836
C         -4.88369       13.78461       -5.38033
C         -4.06419       12.84733       -5.89201
C         -3.51831       11.96532       -4.87186
S         -3.69307       12.72547       -3.31272
C         -3.12658       10.69935       -5.10312
C         -2.87011        9.72459       -4.09936
S         -3.48030        8.09396       -4.21406
C         -2.96424        7.66051       -2.60891
C         -2.31614        8.72278       -2.08997
C         -2.21367        9.81744       -2.92091
O         -1.50418       10.87937       -2.44375
C         -1.23525       10.41391       -1.17651
N         -0.53571       11.33726       -0.34741
O         -1.00917       11.53735        0.77835
O          0.51323       11.81211       -0.79982
C         -1.68669        9.12105       -0.89857
H         -2.60729        4.99167       -4.02811
H          0.75632        1.33776       -3.36515
H         -0.38695        6.47004       -5.08774
H         -4.04441        0.22433       -0.39144
H         -7.06770       -0.17991       -1.71287
H         -6.62949        0.88366       -3.05442
H         -9.30627        0.61112       -1.63693
H         -8.94480        0.47462       -3.35524
H         -8.30698        2.95902       -3.33099
H        -10.50447        3.73694       -3.25912
H        -10.44967        2.30857       -4.03141
H         -9.55136        2.85335       -0.50785
H         -9.01198        4.27115       -1.40999
H         -6.74742        4.92503        2.08520
H         -8.36591        5.73047       -0.37724
H         -8.06260        7.06193        2.37438
H         -9.99628        6.80565       -0.92879
H        -10.16066        8.55360       -0.90122
H        -11.34022        7.52432       -0.06526
H         -9.77774        8.68164        2.91415
H        -10.96387        9.16160        1.71745
H         -8.09863       10.00115        1.83185
H        -10.29740       10.90510        0.11313
H         -7.53607       12.12316        0.67669
H         -9.90358       12.97404       -1.13298
H         -9.37930       14.63361       -3.03888
H         -7.43360       15.06489       -4.62271
H         -5.43849       14.49212       -5.97951
H         -3.88804       12.70525       -6.94884
H         -3.18073       10.33191       -6.12574
H         -3.17530        6.68662       -2.18876
H         -1.56422        8.58192        0.02989
