99

C         -6.54448       -2.92574        7.63983
C         -5.27860       -3.14533        7.20107
C         -4.48949       -4.25130        7.62539
N         -3.81949       -5.13117        7.97714
C         -4.60281       -2.29381        6.27811
N         -4.02540       -1.60424        5.54226
C         -7.33925       -3.80958        8.55528
C         -8.65043       -3.33134        8.61732
C         -9.66817       -3.90479        9.37307
C         -9.34690       -5.04003       10.14313
C         -8.02926       -5.51996       10.11245
C         -7.01207       -4.92111        9.32392
S         -7.84584       -6.89003       11.14937
C         -9.47182       -6.84822       11.59854
C        -10.17353       -5.83086       11.01050
Br       -10.23666       -8.07542       12.78806
C         -8.79926       -2.10088        7.83980
O         -9.82663       -1.45793        7.76858
C         -7.44081       -1.80356        7.26939
C         -7.17788       -0.63873        6.65745
C         -8.13536        0.41222        6.39695
C         -8.75584        0.61443        5.22715
C         -9.70152        1.67531        4.99362
C        -10.35810        1.55802        3.83207
C         -9.94389        0.41698        3.03814
S         -8.54959       -0.36541        3.79990
C        -10.56954       -0.08128        1.95599
C        -11.91166        0.24718        1.50316
C        -12.49219       -0.77121        0.84174
C        -11.60411       -1.90474        0.66377
S         -9.95884       -1.43524        1.02313
C        -11.97924       -3.16489        0.38715
C        -11.03905       -4.24568        0.40345
S        -10.72750       -4.97005        1.94060
C         -9.55053       -5.99987        1.29609
C         -9.37746       -5.85569       -0.06581
N         -8.50840       -6.67928       -0.74397
O         -7.76076       -6.20558       -1.80625
O         -7.85194       -7.67740       -0.03641
C        -10.27186       -4.83486       -0.60927
N        -10.38930       -4.52059       -1.95100
O         -9.24658       -4.51783       -2.75220
O        -11.40101       -3.65165       -2.38430
C        -11.76964       -4.00389       -3.66945
C        -12.26091       -3.15541       -4.56810
C        -12.58917       -3.48654       -5.93507
C        -13.15877       -2.47199       -6.61116
C        -13.35269       -1.27532       -5.81223
S        -12.56955       -1.47808       -4.23378
C        -14.09457       -0.19614       -6.12494
C        -14.84340        0.04938       -7.34754
C        -15.76635        1.02005       -7.22376
C        -15.83649        1.57336       -5.88290
S        -14.42927        1.09736       -4.97178
C        -16.88677        2.24889       -5.37995
C        -17.09802        2.55680       -3.96293
C        -18.12556        3.19929       -3.38132
C        -19.29797        3.91886       -3.87854
C        -19.27492        4.84001       -4.87919
C        -20.41899        5.57564       -5.25274
N        -21.37735        6.15590       -5.57759
C        -18.06655        5.20803       -5.56653
N        -17.10428        5.55251       -6.13106
C        -20.39350        3.72482       -2.85723
C        -19.80788        3.21217       -1.69114
C        -18.35537        2.99945       -1.90566
O        -17.52918        2.73976       -1.05654
C        -20.51549        2.97725       -0.50643
C        -21.88332        3.35387       -0.44620
C        -22.49009        3.81691       -1.62498
C        -21.76741        3.97788       -2.84726
S        -24.16971        4.16224       -1.35521
C        -24.05059        3.82911        0.29727
C        -22.80443        3.39538        0.66884
Br       -25.47499        4.04278        1.50263
H        -10.66640       -3.47420        9.37723
H         -6.01652       -5.34445        9.36770
H        -11.22724       -5.64336       11.18019
H         -6.19166       -0.37633        6.29587
H         -8.36730        1.04490        7.25101
H         -9.84491        2.48292        5.69665
H        -11.09805        2.26882        3.49374
H        -12.43658        1.15007        1.78237
H        -13.52884       -0.78075        0.53236
H        -13.02818       -3.41512        0.26510
H         -9.03372       -6.68906        1.94937
H         -8.45546       -5.88790       -2.41780
H         -7.11983       -7.87264       -0.64743
H         -8.87689       -3.63372       -2.56708
H        -11.59012       -5.05485       -3.88786
H        -12.38798       -4.45972       -6.35499
H        -13.47960       -2.56094       -7.64120
H        -14.69694       -0.51936       -8.25567
H        -16.44578        1.30991       -8.01323
H        -17.71047        2.45992       -6.05608
H        -16.38044        2.08188       -3.29009
H        -20.02074        2.55427        0.36471
H        -22.30245        4.33686       -3.71958
H        -22.54488        3.15210        1.69369
