83

C         -2.43201       -3.23686       -5.39376
C         -3.23476       -4.21504       -5.88842
C         -2.80001       -5.14442       -6.86276
N         -2.45780       -5.91320       -7.66599
C         -4.57960       -4.42056       -5.44337
N         -5.67168       -4.59769       -5.09586
C         -0.98209       -3.02171       -5.71557
C         -0.46122       -2.10170       -4.80335
C          0.85575       -1.65491       -4.80008
C          1.72595       -2.16780       -5.78422
C          1.21978       -3.09306       -6.70935
C         -0.13454       -3.52589       -6.69742
S          2.45192       -3.59618       -7.81423
C          3.60812       -2.61079       -7.07731
C          3.11494       -1.88897       -6.02441
Br         5.39093       -2.51606       -7.64457
C         -1.49407       -1.63722       -3.87242
O         -1.29016       -0.89822       -2.93303
C         -2.77920       -2.25707       -4.33920
C         -3.97175       -1.82138       -3.90664
C         -4.15092       -0.78343       -2.90362
N         -4.23043       -1.17829       -1.62510
C         -4.42143       -0.19449       -0.73126
C         -4.57265        1.12878       -1.07802
C         -4.49473        1.41544       -2.42652
N         -4.29883        0.46680       -3.36150
C         -4.63036        2.80080       -2.89975
C         -4.06708        3.23674       -4.03918
C         -4.16916        4.60172       -4.50425
C         -3.58113        5.12585       -5.60038
C         -2.68409        4.39715       -6.56684
C         -3.81814        6.57098       -5.96747
N         -2.77378        7.36528       -5.36200
C         -1.89511        8.18771       -6.01575
C         -0.91037        8.89306       -5.44615
C          0.03820        9.68395       -6.20633
C          1.28314        9.99662       -5.81358
C          2.26337       10.64284       -6.65612
C          3.51764       10.54208       -6.19037
C          3.61335        9.82256       -4.93187
S          1.99448        9.53673       -4.28895
C          4.72879        9.31484       -4.37519
C          6.06861        9.32557       -4.93308
C          6.87682        8.39953       -4.39005
C          6.23191        7.61441       -3.35592
S          4.72152        8.35917       -2.90246
C          6.72039        6.47237       -2.84642
C          6.07929        5.59018       -1.86658
N          6.89552        4.88084       -1.07242
C          6.28857        4.09366       -0.16416
C          4.92234        3.97816       -0.03740
C          4.17316        4.72023       -0.92231
N          4.74187        5.50861       -1.84977
C          2.70285        4.68903       -0.88210
C          1.91630        5.40141       -1.70311
H          1.19245       -0.92696       -4.06644
H         -0.45409       -4.22669       -7.45953
H          3.70466       -1.19528       -5.43672
H         -4.92043       -2.16328       -4.29445
H         -4.44506       -0.51035        0.30743
H         -4.71972        1.89121       -0.32576
H         -5.19647        3.47088       -2.26128
H         -3.49217        2.53786       -4.64034
H         -4.78346        5.26057       -3.88886
H         -2.41242        3.38898       -6.24842
H         -1.74765        4.94858       -6.70488
H         -3.17749        4.31602       -7.54151
H         -4.79046        6.91487       -5.59669
H         -3.84362        6.69076       -7.05736
H         -2.54659        7.14317       -4.39587
H         -2.03374        8.19742       -7.09503
H         -0.78622        8.84691       -4.36729
H         -0.28453        9.97510       -7.20377
H          2.00683       11.10215       -7.60059
H          4.38009       10.91997       -6.71915
H          6.36610        9.96956       -5.74757
H          7.89223        8.21701       -4.71325
H          7.68577        6.10405       -3.17690
H          6.95838        3.54229        0.48898
H          4.47750        3.34167        0.71446
H          2.24352        4.05281       -0.13238
H          2.32945        6.05748       -2.46572
H          0.83543        5.35139       -1.63163
