83

C         -3.68703       -1.59766       -0.75762
C         -2.73479       -1.56027       -1.72430
C         -1.90926       -2.67424       -2.05437
N         -1.21108       -3.56128       -2.32421
C         -2.46826       -0.40744       -2.51804
N         -2.23034        0.52375       -3.16753
C         -4.08378       -2.81316        0.03472
C         -5.20971       -2.50162        0.79840
C         -5.88656       -3.39944        1.61620
C         -5.40248       -4.72040        1.68521
C         -4.25327       -5.04868        0.95245
C         -3.57403       -4.10675        0.13254
S         -3.82328       -6.70648        1.19099
C         -5.14198       -6.97022        2.21114
C         -5.90307       -5.85126        2.41550
Br        -5.52438       -8.63175        2.98739
C         -5.55896       -1.08627        0.66612
O         -6.40563       -0.54523        1.35052
C         -4.59989       -0.49404       -0.33716
C         -4.61977        0.81811       -0.64938
C         -5.57648        1.81725       -0.19085
C         -6.89609        1.84812       -0.43786
C         -7.83059        2.76100        0.18044
C         -9.10528        2.34018        0.11431
C         -9.24668        1.06693       -0.57246
S         -7.74684        0.70931       -1.44819
C        -10.26290        0.19255       -0.46442
C        -11.47877        0.29405        0.31500
C        -12.08376       -0.89135        0.52042
C        -11.36688       -2.01435       -0.06525
S        -10.17217       -1.40299       -1.16603
C        -11.54433       -3.30190        0.28503
C        -10.73995       -4.42362       -0.08692
S        -10.52354       -5.78693        1.00235
C         -9.43160       -6.65354       -0.06082
C         -9.27923       -5.87258       -1.15445
C        -10.00887       -4.70767       -1.18523
N         -9.80947       -4.03395       -2.35365
N         -8.89546       -4.67815       -3.14194
C         -8.58054       -5.78910       -2.40940
C         -8.90839       -7.92973        0.29278
C         -8.53199       -8.78577       -0.66915
C         -8.00068      -10.11864       -0.45624
C         -7.23445      -10.77661       -1.34302
C         -6.80650      -12.14946       -1.22032
C         -6.08895      -12.59049       -2.26621
C         -5.86628      -11.58863       -3.29502
S         -6.60066      -10.06214       -2.80400
C         -5.24951      -11.75439       -4.48126
C         -4.70392      -12.98167       -5.02929
C         -4.32257      -12.87983       -6.31330
C         -4.51545      -11.55843       -6.87908
S         -5.05528      -10.45007       -5.64621
C         -4.36478      -11.26316       -8.18093
C         -4.60512       -9.97424       -8.74798
O         -4.41863       -8.77641       -8.08311
C         -4.77697       -7.75879       -8.90078
C         -5.16952       -8.24131      -10.12262
C         -5.04275       -9.64217      -10.02453
O         -5.32081      -10.54631      -10.98033
H         -6.76324       -3.08364        2.17468
H         -2.68487       -4.44089       -0.38870
H         -6.78480       -5.82359        3.04438
H         -3.85739        1.26871       -1.27440
H         -5.14413        2.58781        0.44291
H         -7.51421        3.64423        0.71739
H         -9.92893        2.84701        0.58736
H        -11.83719        1.22951        0.71937
H        -12.98011       -1.01374        1.11384
H        -12.30940       -3.50683        1.03455
H        -10.15988       -3.11481       -2.60336
H         -7.85395       -6.47807       -2.82044
H         -8.81524       -8.19232        1.34178
H         -8.66173       -8.50809       -1.71406
H         -8.30062      -10.61281        0.46401
H         -7.07612      -12.76538       -0.37364
H         -5.71500      -13.60141       -2.34136
H         -4.64724      -13.90378       -4.46873
H         -3.92833      -13.70504       -6.89095
H         -4.10032      -12.04983       -8.88125
H         -4.69904       -6.76987       -8.47035
H         -5.50394       -7.64822      -10.96015
H         -5.64220      -10.09244      -11.77814
