97

C         -8.78233       -1.35961       -0.52341
C         -8.92079       -2.36108       -1.42514
C        -10.10610       -3.14954       -1.48867
N        -11.09312       -3.77483       -1.53799
C         -7.93757       -2.62312       -2.42502
N         -7.12997       -2.84298       -3.22942
C         -9.78374       -0.91629        0.48465
C         -9.54743        0.43552        0.75184
C        -10.24232        1.18429        1.68720
C        -11.24620        0.52635        2.42454
C        -11.49106       -0.83614        2.17767
C        -10.76544       -1.58296        1.20872
S        -12.75183       -1.42523        3.20534
C        -12.96027        0.08500        3.93052
C        -12.10360        1.03940        3.45535
Br       -14.23860        0.42586        5.25705
C         -8.39614        0.91585       -0.01815
O         -8.15054        2.07442       -0.27129
C         -7.71811       -0.32760       -0.49892
C         -6.38530       -0.48252       -0.55981
C         -5.46578        0.52828       -0.13251
S         -4.82425        1.63184       -1.28309
C         -3.83440        2.39121       -0.12121
C         -3.98948        1.87134        1.14792
C         -3.27573        2.40798        2.35031
C         -4.91746        0.76821        1.12675
C         -5.28322        0.03536        2.30262
C         -4.65771       -1.06330        2.75470
C         -5.05726       -1.68698        3.99535
C         -5.41112       -2.97726        4.09872
C         -5.86882       -3.54615        5.35035
C         -5.84340       -4.84357        5.72170
C         -5.30085       -5.97655        4.88780
C         -6.38621       -5.25743        7.08019
N         -5.31987       -5.84720        7.87275
C         -4.47159       -5.19018        8.73304
C         -4.69307       -4.11336        9.49739
C         -3.66322       -3.55346       10.35211
C         -3.76708       -2.48723       11.15966
C         -2.68036       -2.01126       11.98257
C         -3.02790       -1.01370       12.80510
C         -4.42392       -0.62032       12.69924
S         -5.19589       -1.50792       11.38516
C         -5.05808        0.25207       13.50670
C         -4.47268        0.90203       14.66523
C         -5.33048        1.65926       15.35981
C         -6.65170        1.71188       14.78281
S         -6.75010        0.72802       13.34193
C         -7.63680        2.47800       15.27277
C         -8.93830        2.66849       14.66281
C         -9.43266        3.85846       14.28150
C        -10.65016        4.18382       13.49775
C        -11.75819        3.41426       13.34947
C        -12.85045        3.77710       12.51454
N        -13.73345        4.06418       11.81417
C        -11.94040        2.18206       14.04105
N        -12.10710        1.18653       14.61590
C        -10.45123        5.57159       12.96382
C         -9.26929        6.09587       13.50921
C         -8.62431        5.12225       14.39385
O         -7.63745        5.35017       15.06203
C         -8.77755        7.36346       13.22770
C         -9.51061        8.16442       12.35713
C        -10.70964        7.68136       11.80185
C        -11.17885        6.38636       12.10338
Cl       -11.66966        8.64049       10.72889
Cl        -8.89022        9.73514       11.99807
H         -9.99034        2.22695        1.85869
H        -10.97470       -2.64208        1.08716
H        -12.08037        2.06473        3.80593
H         -5.94219       -1.44249       -0.80055
H         -3.18897        3.20721       -0.41671
H         -2.82173        3.38121        2.13047
H         -2.47713        1.72968        2.66739
H         -3.96693        2.55393        3.18690
H         -6.11679        0.44190        2.87170
H         -3.81438       -1.49578        2.21940
H         -5.05535       -1.04007        4.87257
H         -5.40171       -3.61155        3.21688
H         -6.27808       -2.81913        6.05416
H         -5.00254       -5.68228        3.87952
H         -6.05432       -6.76549        4.79124
H         -4.41466       -6.40923        5.36440
H         -7.17145       -6.00846        6.93470
H         -6.85586       -4.41925        7.60705
H         -4.89317       -6.65913        7.43523
H         -3.50107       -5.68415        8.77069
H         -5.67469       -3.65062        9.50260
H         -2.70899       -4.07884       10.32643
H         -1.68499       -2.43231       11.93889
H         -2.32904       -0.54971       13.48583
H         -3.44326        0.77054       14.96425
H         -5.06463        2.20402       16.25536
H         -7.44355        3.07757       16.16212
H         -9.45457        1.73551       14.45559
H         -7.84664        7.70552       13.67202
H        -12.10710        6.06907       11.64169
