104

C         -5.61051        7.80985        3.89029
C         -6.53263        6.93152        4.33941
C         -7.16574        7.08302        5.61371
N         -7.65400        7.20583        6.65554
C         -6.97229        5.82997        3.55948
N         -7.46708        5.01943        2.89403
C         -5.34535        9.15873        4.47884
C         -4.11863        9.60931        3.99255
C         -3.69476       10.92939        4.06413
C         -4.54565       11.84648        4.72864
C         -5.73324       11.37114        5.31154
C         -6.16327       10.02905        5.18440
S         -6.57376       12.63017        6.14218
C         -5.43384       13.78198        5.67663
C         -4.42453       13.26931        4.90517
Br        -5.54547       15.58407        6.17436
C         -3.46271        8.48920        3.31350
O         -2.32228        8.11590        3.49582
C         -4.58310        7.63868        2.82690
C         -4.62483        7.06823        1.62065
C         -3.67273        7.15676        0.54251
O         -4.10228        6.73791       -0.73977
C         -2.37111        7.58166        0.33546
C         -1.22676        8.28977        0.86652
O         -1.21671        9.27389        1.59108
N         -0.16910        7.94446        0.05014
C         -0.60367        7.50041       -1.17251
O          0.01190        7.48951       -2.22238
C         -1.98224        7.19541       -0.95452
C         -3.08207        6.83181       -1.67071
C         -3.16899        6.63686       -3.07094
C         -4.29561        6.81567       -3.77374
C         -4.47438        6.70957       -5.22179
C         -3.63674        6.32371       -6.20150
C         -4.03752        6.10606       -7.57961
C         -3.17406        5.33806       -8.26839
C         -2.04224        4.90430       -7.46712
S         -1.96283        5.88793       -6.02023
C         -1.25992        3.82692       -7.66180
C         -1.35244        2.86870       -8.74542
C         -0.74721        1.70006       -8.47835
C         -0.13074        1.66138       -7.16960
S         -0.09141        3.25775       -6.46778
C          0.30344        0.55285       -6.54560
C          0.84039        0.51090       -5.21366
C          2.19813        0.67229       -5.04679
S          2.62347        0.77570       -3.41342
C          0.99824        0.59643       -2.90521
C          0.10643        0.39937       -3.94893
C         -1.27254        0.11879       -3.60001
C         -2.09687       -0.63359       -4.64844
C         -3.58602       -0.49632       -4.87612
C         -1.71558        0.30444       -2.21198
C         -3.19357        0.25528       -1.84117
C         -4.19923        1.20484       -2.48556
C         -0.72375        0.47360       -1.15396
C         -0.75860        0.55511        0.32108
C          0.48879        0.75595        0.87854
S          1.71365        0.81247       -0.27681
C          0.60306        0.60500       -1.55892
C         -1.86168        0.56794        1.23945
C         -2.91043       -0.26678        1.30201
C         -4.05660        0.00821        2.09561
S         -5.27270       -1.19491        2.44193
C         -6.32730       -0.08523        3.30195
C         -5.68358        1.10296        3.31625
C         -4.49551        1.16859        2.62961
N         -3.99440        2.43949        2.61942
N         -4.76993        3.26912        3.38820
C         -5.79471        2.45079        3.78910
C         -7.58261       -0.51558        3.80450
C         -8.61317        0.33049        3.93832
H         -2.77629       11.24614        3.57725
H         -7.13003        9.74378        5.58464
H         -3.61836       13.86558        4.49481
H         -5.51686        6.50688        1.34371
H          0.69453        8.45852        0.10093
H         -2.22442        6.41960       -3.54869
H         -5.20801        7.07772       -3.23675
H         -5.50276        6.92815       -5.51488
H         -4.97103        6.47386       -7.98205
H         -3.33481        5.01889       -9.28754
H         -1.89771        3.06441       -9.65727
H         -0.75009        0.85143       -9.14735
H          0.23089       -0.40270       -7.05820
H          2.95598        0.78111       -5.81075
H         -1.88617       -1.69839       -4.48099
H         -1.68165       -0.41799       -5.63000
H         -4.15936       -0.99500       -4.09249
H         -3.85868       -1.00214       -5.81054
H         -3.88666        0.54702       -4.98981
H         -3.25905        0.59189       -0.81711
H         -3.54260       -0.78279       -1.84617
H         -4.73888        1.76617       -1.71178
H         -4.98698        0.64309       -2.99739
H         -3.74338        1.92439       -3.16723
H          0.74009        0.87792        1.92450
H         -1.78251        1.35518        1.98236
H         -2.94333       -1.13791        0.64980
H         -3.20440        2.81231        2.10909
H         -6.58144        2.87023        4.40060
H         -7.71600       -1.56318        4.06137
H         -8.56000        1.37806        3.65556
H         -9.56793       -0.02001        4.31789
