110

C         -3.60498       -0.85926       -2.70957
C         -3.16007       -1.50557       -1.60289
C         -2.12029       -2.47655       -1.62843
N         -1.28182       -3.27651       -1.63774
C         -3.65403       -1.24861       -0.28923
N         -4.02259       -1.04012        0.78681
C         -3.01731       -0.94691       -4.08564
C         -3.62985        0.00924       -4.90275
C         -3.26993        0.25004       -6.22628
C         -2.20051       -0.50102       -6.76587
C         -1.59411       -1.47564       -5.96108
C         -2.00075       -1.72694       -4.62726
S         -0.31404       -2.27610       -6.80113
C         -0.53928       -1.32577       -8.17605
C         -1.57159       -0.43316       -8.05734
Br         0.52631       -1.47953       -9.70850
C         -4.66697        0.74142       -4.16081
O         -5.36303        1.63868       -4.59246
C         -4.67709        0.15805       -2.78317
C         -5.60376        0.53884       -1.89385
N         -6.57044        1.52198       -1.98929
C         -7.47983        1.87136       -1.02842
S         -8.03828        0.71447        0.13890
C         -8.95722        1.85747        0.96750
N         -9.64427        1.48952        2.17833
O        -10.28854        2.38487        2.73832
O         -9.53522        0.32616        2.59086
C         -8.92774        3.09326        0.36526
C         -8.08688        3.10661       -0.80600
C         -7.88258        4.32385       -1.54887
C         -7.69414        4.45058       -2.87221
C         -7.62417        5.74220       -3.53537
C         -8.44981        6.11222       -4.52644
C         -8.51545        7.42734       -5.12360
C         -9.69297        7.66680       -5.72594
C        -10.62475        6.55532       -5.60234
S         -9.73915        5.10661       -5.14185
C        -11.96849        6.62571       -5.61388
C        -12.76564        7.82638       -5.78078
C        -14.00903        7.70687       -5.29158
C        -14.27354        6.40249       -4.72172
S        -13.01245        5.28004       -5.15104
C        -15.29804        6.15222       -3.89535
C        -15.45805        4.93755       -3.17449
S        -14.89453        4.88595       -1.56228
C        -15.58638        3.34584       -1.25720
C        -16.15295        2.83233       -2.41819
C        -16.04213        3.73698       -3.53626
C        -16.58629        3.39092       -4.89108
C        -16.80492        1.88562       -5.05374
C        -17.58577        1.29169       -3.87144
O        -17.79498       -0.10027       -4.16223
C        -18.55227       -0.78737       -3.17346
C        -16.82845        1.49266       -2.54237
C        -15.51533        2.73696        0.03411
C        -15.45071        3.44885        1.17361
C        -15.44022        2.85899        2.47430
S        -16.15636        1.33345        2.76604
C        -15.81015        1.35426        4.44372
C        -15.29423        2.59269        4.80484
C        -14.95392        3.40123        3.65821
C        -14.21079        4.71362        3.78049
C        -13.72760        5.03384        5.20644
C        -12.29704        4.55485        5.43335
O        -11.35960        4.87702        4.71326
O        -12.17953        3.81401        6.56610
C        -10.87511        3.30446        6.84705
C        -14.74488        4.57063        6.26298
C        -15.03199        3.06300        6.20576
C        -16.12306        0.22993        5.26792
C        -16.09504       -1.03250        4.81502
H         -3.77698        1.01427       -6.80947
H         -1.47942       -2.49945       -4.07699
H         -1.86421        0.25635       -8.83979
H         -5.64399        0.06286       -0.92399
H         -6.46539        2.10375       -2.82414
H         -9.46715        3.95660        0.74120
H         -7.97941        5.24226       -0.96840
H         -7.70333        3.58572       -3.53007
H         -6.91144        6.45635       -3.12950
H         -7.71754        8.15176       -5.04066
H         -9.95186        8.60996       -6.18487
H        -12.37549        8.74677       -6.18988
H        -14.72652        8.51472       -5.25499
H        -15.98991        6.94937       -3.63959
H        -15.90330        3.73596       -5.67534
H        -17.53756        3.91837       -5.03025
H        -15.83890        1.37027       -5.14548
H        -17.33485        1.68888       -5.99405
H        -18.56623        1.78489       -3.82462
H        -18.80362       -1.77898       -3.55955
H        -19.47900       -0.25287       -2.94538
H        -17.95971       -0.92378       -2.26403
H        -16.07986        0.70016       -2.41920
H        -17.54457        1.37477       -1.71813
H        -15.55450        1.65141        0.05842
H        -15.42590        4.53414        1.14619
H        -14.89334        5.51281        3.46223
H        -13.37040        4.71552        3.07474
H        -13.64873        6.12723        5.29750
H        -10.98788        2.47675        7.55423
H        -10.27132        4.08383        7.32011
H        -10.38462        2.92039        5.94801
H        -15.68303        5.11756        6.09408
H        -14.41032        4.84369        7.27100
H        -15.90861        2.86100        6.83303
H        -14.20343        2.48679        6.62918
H        -16.35401        0.40688        6.31412
H        -15.82879       -1.28637        3.79255
H        -16.32830       -1.86403        5.47052
