87

C         -0.63659       -2.72855        4.05060
C          0.18599       -3.55953        4.73171
C         -0.23675       -4.22813        5.91428
N         -0.60602       -4.75002        6.88733
C          1.56882       -3.68457        4.39350
N          2.69845       -3.75885        4.14518
C         -1.97680       -2.28109        4.49162
C         -2.11525       -0.93170        4.11926
C         -3.26155       -0.19788        4.36531
C         -4.34370       -0.87236        4.93734
C         -4.25000       -2.24826        5.24859
C         -3.05335       -2.95529        5.04417
Cl        -5.60952       -3.15028        5.82285
Cl        -5.80258        0.02346        5.17325
C         -0.97634       -0.52850        3.26085
O         -0.74745        0.57675        2.82316
C         -0.25823       -1.81555        2.96788
C          0.21653       -1.99899        1.72362
C          0.45352       -3.28098        1.14864
O          0.22658       -4.48938        1.80830
C          0.86768       -3.64116       -0.11034
C          1.28284       -3.10092       -1.37179
O          1.39280       -1.92936       -1.67847
N          1.54023       -4.21223       -2.15322
C          1.35081       -5.41386       -1.50540
O          1.52284       -6.53848       -1.93927
C          0.91271       -5.03277       -0.20048
C          0.55570       -5.57359        1.00016
C          0.52400       -6.92765        1.41226
C          0.15332       -7.24371        2.65923
C          0.13845       -8.57791        3.12789
O          0.30883       -8.87718        4.47745
C         -0.05742       -9.78329        2.50817
C         -0.34498      -10.37132        1.23591
O         -0.49805       -9.81108        0.16629
N         -0.42771      -11.72397        1.49909
C         -0.22928      -12.05416        2.82419
O         -0.26958      -13.15740        3.33596
C          0.01072      -10.79785        3.46068
C          0.24994      -10.25061        4.68903
C          0.41520      -10.87806        5.94626
C          0.09284      -10.23811        7.07949
C          0.25740      -10.85495        8.34634
O         -0.55730      -10.55434        9.44069
C          1.15816      -11.77757        8.80912
C          2.30524      -12.53755        8.41499
O          2.87100      -12.54897        7.33812
N          2.64045      -13.25338        9.54805
C          1.82239      -13.01037       10.63145
O          1.89882      -13.48304       11.75021
C          0.87552      -12.06293       10.14172
C         -0.19248      -11.31323       10.55183
C         -0.82508      -11.27680       11.81763
C         -1.48939      -10.18942       12.23303
C         -2.13163      -10.14674       13.53167
C         -3.17404       -9.37843       13.88131
C         -3.84970       -9.23563       15.19189
C         -3.93756      -10.16614       16.17646
C         -4.71887       -9.97371       17.34910
N         -5.35495       -9.80925       18.30768
C         -3.31943      -11.44760       16.08720
N         -2.82203      -12.49280       16.01466
C         -4.60101       -7.94552       15.13788
C         -4.61432       -7.49760       13.80871
C         -3.81213       -8.37964       12.95630
O         -3.71568       -8.27185       11.75297
C         -5.25192       -6.33970       13.38980
C         -5.89272       -5.56943       14.35684
C         -5.86708       -5.96896       15.70748
C         -5.21697       -7.15517       16.10010
Cl        -6.61328       -5.02820       16.95214
Cl        -6.67785       -4.12288       13.83529
H         -3.33173        0.84193        4.05983
H         -3.00958       -4.01980        5.25952
H          0.29185       -1.14032        1.05552
H          1.87217       -4.15689       -3.10198
H          0.84388       -7.68061        0.69614
H         -0.12013       -6.47891        3.37743
H         -0.63677      -12.40622        0.79100
H          0.78559      -11.89943        5.94580
H         -0.34273       -9.24211        7.06204
H          3.42979      -13.87369        9.58587
H         -0.75876      -12.16473       12.44268
H         -1.54392       -9.30766       11.59559
H         -1.66342      -10.80725       14.25769
H         -5.22913       -6.04516       12.34405
H         -5.20171       -7.40789       17.15563
