93

C         -1.61428        4.32110        7.06641
C         -0.95459        4.23554        8.29138
F         -0.88273        5.32086        9.07339
C         -0.39055        3.03903        8.71054
F          0.21108        2.95460        9.90446
C         -0.45383        1.91165        7.90364
C         -1.11327        1.97473        6.67061
C         -1.72587        3.19086        6.24183
C         -2.45976        3.23207        5.03022
C         -2.59610        2.07996        4.26492
C         -1.95546        0.91776        4.71905
C         -1.20913        0.83496        5.88044
C         -2.31597       -0.23459        3.90012
O         -1.89662       -1.36600        4.03782
C         -3.37185        0.25318        2.96355
C         -3.39041        1.72912        3.04277
C         -3.92499        2.59311        2.14513
C         -4.58206        2.15083        0.95815
N         -5.11819        1.79109       -0.00237
C         -3.82323        4.00457        2.28498
N         -3.73649        5.15923        2.40533
C         -4.19243       -0.65165        2.40764
N         -4.14616       -2.02169        2.59167
C         -4.93172       -2.99469        2.06304
S         -5.13025       -4.45558        2.96703
C         -6.26992       -5.03887        1.87049
N         -6.94043       -6.26662        2.13549
O         -6.85403       -7.14160        1.26514
O         -7.59797       -6.33205        3.18150
C         -6.43220       -4.24416        0.76701
C         -5.64482       -3.05133        0.87100
C         -5.58130       -2.05420       -0.15953
C         -6.60754       -1.74203       -0.96903
C         -6.50433       -0.82547       -2.06263
C         -7.49568        0.00643       -2.61480
C         -8.77974        0.10834       -2.00251
N         -9.81121        0.12460       -1.45891
C         -7.04776        0.56492       -3.83230
C         -5.78513        0.19680       -4.14464
S         -5.03601       -0.74832       -3.00241
S         -5.23847        0.72855       -5.64295
C         -6.72544        1.47630       -5.87903
C         -7.59321        1.35611       -4.84845
C         -8.80051        2.05474       -5.06453
C         -9.87169        2.25550       -4.13749
N        -10.75221        2.48704       -3.41351
C         -8.81353        2.60962       -6.35984
S         -7.29777        2.35121       -7.17216
C         -9.84076        3.41791       -7.05534
C        -10.36388        3.15142       -8.33495
C        -11.41164        3.95711       -8.93220
N        -11.82937        3.65230      -10.18760
C        -11.19284        2.65488      -10.87688
C        -10.19810        1.89592      -10.30153
N         -9.82292        2.11590       -9.01690
C         -9.44832        0.87138      -11.01902
N         -8.84554        0.07475      -11.59156
C        -11.58373        2.45487      -12.23816
N        -11.85512        2.24496      -13.35115
C        -12.00339        5.05490       -8.24492
C        -11.43430        5.39887       -6.98176
C        -10.30641        4.58536       -6.40595
N         -9.80810        5.09739       -5.26822
S        -10.72795        6.41484       -4.89078
N        -11.79216        6.40498       -6.16447
C        -13.18938        5.80925       -8.74287
C        -13.22835        6.88795       -9.54799
C        -14.43301        7.48061      -10.11032
C        -14.19599        8.28382      -11.16508
C        -12.77957        8.37616      -11.49683
S        -11.82320        7.70350      -10.16105
C        -12.22458        8.77364      -12.66019
C        -12.90870        9.23748      -13.85654
C        -12.11334        9.32753      -14.93508
C        -10.74892        8.94595      -14.67251
S        -10.48485        8.64811      -12.98387
C         -9.78657        8.79803      -15.58643
H         -2.05133        5.27475        6.78169
H         -0.00729        0.98724        8.26112
H         -2.94988        4.16244        4.75854
H         -0.77423       -0.11636        6.17696
H         -5.04919       -0.34659        1.81746
H         -3.55355       -2.29816        3.38613
H         -7.08573       -4.49229       -0.06099
H         -4.62528       -1.54410       -0.27230
H         -7.57158       -2.22373       -0.81916
H        -14.13395        5.35029       -8.46143
H        -15.42785        7.25675       -9.74486
H        -14.97782        8.76767      -11.73950
H        -13.96521        9.46414      -13.88664
H        -12.44489        9.63349      -15.91796
H         -9.97298        8.96379      -16.64106
H         -8.78542        8.48120      -15.30687
