109

C          2.12928        2.76042        2.97783
C          2.68038        2.56587        4.24588
F          3.58943        3.43574        4.70644
C          2.31529        1.47297        5.01843
F          2.88067        1.26567        6.21526
C          1.37194        0.57131        4.55039
C          0.82165        0.74176        3.27406
C          1.21336        1.83392        2.44912
C          0.71467        1.93502        1.11864
C         -0.13398        0.95207        0.60382
C         -0.50523       -0.06820        1.47378
C         -0.07961       -0.19254        2.78792
C         -1.27981       -1.09299        0.79840
O         -1.69084       -2.06920        1.38459
C         -1.34236       -0.73077       -0.65786
C         -0.72103        0.64734       -0.75388
C         -0.69354        1.48960       -1.81896
C         -1.26494        1.15789       -3.07934
N         -1.71791        0.86999       -4.10895
C         -0.09580        2.79518       -1.77595
N          0.38412        3.83887       -1.74485
C         -1.71447       -1.61204       -1.62031
C         -2.06521       -3.02757       -1.50604
C         -1.70401       -3.96704       -2.46608
C         -1.24999       -3.71219       -3.79847
N         -0.93471       -3.49025       -4.89234
S         -1.82959       -5.56643       -1.86668
C         -2.62097       -5.04866       -0.43841
C         -2.89751       -3.68625       -0.52699
C         -3.86563       -3.02297        0.30530
N         -4.67396       -2.45036        0.91103
C         -2.91326       -5.96803        0.65035
S         -2.56976       -5.44359        2.26548
C         -3.11477       -6.89965        2.95190
C         -3.52007       -7.79676        1.99326
C         -3.36361       -7.28416        0.66272
C         -3.59689       -8.10662       -0.48822
C         -4.74992       -8.29365       -1.16244
C         -4.80705       -9.29444       -2.32259
C         -5.16506      -10.69756       -1.91058
S         -6.79161      -11.22441       -1.97061
C         -6.43482      -12.62291       -1.05147
C         -7.54780      -13.44496       -0.47799
C         -7.95164      -14.59320       -1.38299
C         -5.07267      -12.80323       -0.92145
C         -4.33540      -11.69617       -1.43707
C         -5.99877       -7.59975       -0.86039
C         -6.13017       -6.26401       -0.92315
C         -7.36503       -5.56047       -0.76149
C         -8.69038       -5.93045       -1.01171
C         -9.02946       -7.15652       -1.64468
N         -9.27716       -8.13350       -2.21370
C         -9.56739       -4.87113       -0.72625
C         -8.94953       -3.71247       -0.43270
S         -7.29855       -3.86782       -0.31736
S         -9.98977       -2.38972       -0.29936
C        -11.29445       -3.42084       -0.59057
C        -10.94281       -4.71134       -0.76680
C        -12.03262       -5.58331       -0.88398
C        -12.03678       -7.01205       -0.78898
N        -12.12101       -8.15305       -0.60663
C        -13.22252       -4.85947       -1.03678
S        -12.94431       -3.17204       -0.64303
C        -14.51275       -5.40040       -1.33823
C        -15.51119       -4.81668       -2.01078
C        -16.82375       -5.54593       -2.08756
O        -17.03306       -6.72743       -1.92159
C        -17.83182       -4.50304       -2.34363
C        -19.20105       -4.67637       -2.42115
C        -19.99497       -3.52968       -2.52651
C        -19.38813       -2.23580       -2.46073
C        -20.20543       -1.09804       -2.46638
C        -21.58312       -1.22985       -2.60711
C        -22.16343       -2.48350       -2.74117
C        -21.38319       -3.63348       -2.68740
F        -23.48587       -2.59784       -2.92263
F        -22.34561       -0.12853       -2.62727
C        -17.98667       -2.10729       -2.41977
C        -17.20801       -3.25050       -2.44063
C        -15.74874       -3.49167       -2.57739
C        -14.94132       -2.79671       -3.41545
C        -13.69194       -3.31916       -3.86847
N        -12.68342       -3.75460       -4.23888
C        -15.33177       -1.55820       -3.99365
N        -15.65996       -0.53459       -4.44117
H          2.44922        3.62795        2.40661
H          1.10248       -0.27651        5.17552
H          1.06923        2.76620        0.51706
H         -0.40573       -1.04338        3.38203
H         -1.59761       -1.29393       -2.65175
H         -3.09724       -7.03297        4.02509
H         -3.88534       -8.78777        2.23835
H         -2.73577       -8.70104       -0.79279
H         -3.82569       -9.32623       -2.81760
H         -5.49452       -8.93065       -3.09872
H         -8.42155      -12.81195       -0.27830
H         -7.23292      -13.84194        0.49517
H         -8.29069      -14.22999       -2.35843
H         -8.77137      -15.15818       -0.92723
H         -7.11512      -15.27992       -1.54731
H         -4.62689      -13.65043       -0.41361
H         -3.25793      -11.60321       -1.37407
H         -6.83434       -8.25843       -0.63237
H         -5.25812       -5.66334       -1.15076
H        -14.68424       -6.42485       -0.99786
H        -19.62663       -5.67643       -2.39760
H        -19.78617       -0.09926       -2.37711
H        -21.87155       -4.59937       -2.78712
H        -17.53436       -1.11922       -2.38792
