88

C        -12.50935        1.33855        5.23048
C        -13.61542        2.01943        4.73084
F        -14.26706        2.87965        5.52483
C        -14.05273        1.79978        3.43241
F        -15.14396        2.42615        2.97275
C        -13.37300        0.91981        2.59819
C        -12.26286        0.21417        3.08224
C        -11.83571        0.40492        4.42925
C        -10.76939       -0.35756        4.95251
C        -10.14990       -1.31914        4.16381
C        -10.55074       -1.42402        2.82484
C        -11.58072       -0.68685        2.26350
C         -9.72605       -2.39979        2.10872
O         -9.80579       -2.67533        0.92822
C         -8.75466       -2.93543        3.11252
C         -9.08343       -2.33762        4.42932
C         -8.60747       -2.70405        5.64755
C         -9.04502       -2.10573        6.86374
N         -9.39133       -1.61206        7.85545
C         -7.65571       -3.74989        5.82747
N         -6.88255       -4.59507        5.98794
C         -7.77024       -3.74417        2.69464
N         -7.50831       -4.16745        1.40305
C         -6.53397       -5.02689        0.98166
S         -5.90942       -6.26881        2.01248
C         -4.87777       -6.85317        0.81537
N         -4.01651       -7.97537        1.07124
O         -3.25701       -8.30308        0.14885
O         -4.08700       -8.53488        2.17258
C         -4.96270       -6.13987       -0.35498
C         -5.92041       -5.07296       -0.26988
C         -6.16526       -4.11533       -1.32221
C         -5.51008       -4.07073       -2.49589
C         -5.70936       -3.03366       -3.48121
C         -4.71044       -2.37456       -4.10464
C         -3.24419       -2.59402       -3.82265
C         -5.00515       -1.27190       -5.09223
N         -5.03314       -1.85715       -6.41319
C         -4.77626       -1.19984       -7.58621
C         -4.82719       -1.72587       -8.81552
C         -4.51453       -0.95608       -9.99875
C         -3.62956       -1.29654      -10.94711
C         -3.38062       -0.50714      -12.12842
C         -2.53787       -1.08735      -12.99306
C         -2.06492       -2.39498      -12.56806
S         -2.62348       -2.72487      -10.92633
C         -1.38872       -3.27554      -13.33229
C         -1.03216       -3.09048      -14.72778
C         -0.60131       -4.20655      -15.33566
C         -0.56052       -5.35294      -14.45897
S         -0.91878       -4.89208      -12.80866
C         -0.35059       -6.63848      -14.78189
C         -0.14483       -7.16820      -16.13266
S         -1.61570       -7.79067      -16.88218
C         -1.03689       -8.89927      -18.11094
C         -1.85450       -9.85823      -18.67082
S         -1.04511      -10.78597      -19.85867
C          0.40117       -9.89904      -19.63335
C          0.27061       -8.92264      -18.66824
S          1.59091       -7.84537      -18.24646
C          1.12619       -7.19388      -16.67740
H        -12.20237        1.53138        6.25524
H        -13.73699        0.77667        1.58416
H        -10.47281       -0.17771        5.98090
H        -11.84752       -0.83380        1.21992
H         -7.02170       -4.10950        3.38757
H         -8.13544       -3.75032        0.70525
H         -4.35267       -6.36698       -1.22111
H         -6.88670       -3.32552       -1.12020
H         -4.75403       -4.80974       -2.74526
H         -6.74452       -2.77989       -3.70799
H         -3.02057       -3.60894       -3.48273
H         -2.90955       -1.89256       -3.05031
H         -2.63963       -2.42502       -4.71969
H         -4.23723       -0.49138       -5.02103
H         -5.96720       -0.79370       -4.87766
H         -5.48549       -2.76351       -6.49634
H         -4.46748       -0.16504       -7.44638
H         -5.08150       -2.77337       -8.95571
H         -5.07951       -0.03207      -10.10462
H         -3.85303        0.45004      -12.29972
H         -2.26479       -0.63468      -13.93488
H         -1.15326       -2.15192      -15.24981
H         -0.34343       -4.25301      -16.38408
H         -0.39295       -7.40384      -14.00962
H         -2.89232      -10.06387      -18.44517
H          1.27374      -10.14101      -20.22487
H          1.94786       -6.77519      -16.09989
