102

C         -9.49024      -12.38664        2.13041
C         -9.59195      -13.69335        1.65047
F        -10.56071      -14.48614        2.12208
C         -8.69999      -14.17834        0.70098
F         -8.80564      -15.43531        0.25030
C         -7.68772      -13.36821        0.21677
C         -7.56524      -12.06188        0.69323
C         -8.47850      -11.53770        1.66996
C         -8.34170      -10.21231        2.15547
C         -7.29257       -9.43471        1.70533
C         -6.43836      -10.00227        0.75290
C         -6.53225      -11.27703        0.23063
C         -5.33788       -9.10654        0.49345
O         -4.21506       -9.54791        0.38935
C         -5.82695       -7.76750        0.89740
C         -6.76632       -8.06044        1.99319
C         -6.86479       -7.36058        3.14338
C         -7.56781       -7.87207        4.26362
N         -8.13397       -8.32251        5.17229
C         -6.13401       -6.15121        3.34326
N         -5.53901       -5.16558        3.48181
C         -5.72723       -6.64982        0.16592
N         -5.14532       -6.38140       -1.07131
C         -3.81133       -6.46731       -1.39037
S         -2.85331       -7.87188       -1.18055
C         -1.45409       -6.96319       -1.10787
N         -0.30886       -7.52508       -0.48617
O          0.69643       -7.64192       -1.20539
O         -0.39328       -7.80244        0.70847
C         -1.60068       -5.79233       -1.80296
C         -3.00308       -5.55146       -2.06043
C         -3.42240       -4.42039       -2.81813
C         -4.66240       -4.02747       -3.14031
C         -5.01606       -2.86720       -3.91217
C         -4.36982       -1.69539       -3.98554
C         -4.83322       -0.59743       -4.78253
C         -4.02117        0.46066       -4.74278
C         -2.86271        0.27285       -3.88582
S         -2.88951       -1.29957       -3.15810
C         -1.91037        1.18722       -3.62468
C         -1.92125        2.53628       -4.12958
C         -0.97362        3.31047       -3.59781
C         -0.15287        2.63379       -2.62712
S         -0.52221        0.93329       -2.56150
C          0.77924        3.20695       -1.85620
N          1.13036        4.53976       -1.74400
C          0.39752        5.55675       -1.18671
S         -1.32992        5.62155       -1.28794
C         -1.39212        7.13909       -0.58192
N         -2.65522        7.76628       -0.42356
O         -3.01264        8.00159        0.73672
O         -3.28369        8.04801       -1.45608
C         -0.17568        7.59689       -0.15064
C          0.87577        6.68360       -0.50725
C          2.25057        6.98076       -0.19468
C          3.22445        6.09332        0.05905
C          4.59814        6.46853        0.30639
C          5.65731        5.98591       -0.35809
C          7.00506        6.07973        0.29406
O          7.37930        6.87518        1.12846
C          7.75439        4.91743       -0.21917
C          8.95349        4.43707        0.27865
C          9.42274        3.21319       -0.21178
C          8.66766        2.50248       -1.19559
C          9.12635        1.25580       -1.64276
C         10.30487        0.72219       -1.13244
C         11.04181        1.41741       -0.18427
C         10.61170        2.65665        0.27823
F         12.17439        0.89425        0.30469
F         10.71829       -0.47783       -1.56139
C          7.46481        3.03815       -1.69339
C          7.01114        4.25811       -1.21306
C          5.79332        5.06646       -1.48975
C          5.14084        5.10986       -2.67381
C          4.15993        6.11026       -2.96420
N          3.35613        6.90468       -3.22691
C          5.42096        4.22747       -3.74881
N          5.64560        3.49530       -4.61525
H        -10.20387      -12.05317        2.87858
H         -6.99526      -13.77400       -0.51956
H         -9.04688       -9.83303        2.89107
H         -5.79208      -11.62023       -0.48703
H         -6.31152       -5.78053        0.46553
H         -5.57838       -5.53296       -1.40902
H         -0.77978       -5.13211       -2.06041
H         -2.58490       -3.84814       -3.20709
H         -5.54371       -4.59599       -2.89181
H         -5.96634       -2.97086       -4.43712
H         -5.75359       -0.63913       -5.35404
H         -4.21536        1.36551       -5.28941
H         -2.64815        2.90555       -4.83577
H         -0.85386        4.35362       -3.84520
H          1.39788        2.57600       -1.21671
H          2.12814        4.68339       -1.82115
H         -0.04030        8.53109        0.38016
H          2.51057        8.04005       -0.17695
H          3.01202        5.02786        0.10623
H          4.76006        7.07737        1.19857
H          9.47636        4.98336        1.05977
H          8.57384        0.67919       -2.38077
H         11.20845        3.16716        1.02943
H          6.89425        2.46538       -2.41929
