92

C          4.79772      -10.63073       -8.08880
C          6.17724      -10.55862       -7.86521
F          7.00772      -11.31122       -8.60014
C          6.68872       -9.73389       -6.87621
F          7.99561       -9.74704       -6.57904
C          5.84550       -8.87077       -6.19505
C          4.46745       -8.87683       -6.46709
C          3.90167       -9.84896       -7.32738
C          2.48033      -10.00031       -7.35848
C          1.66576       -9.16978       -6.57983
C          2.26711       -8.07674       -5.96806
C          3.63867       -7.91513       -5.89858
C          1.20060       -7.19043       -5.46494
O          1.01306       -6.08787       -5.94331
C          0.09942       -8.09169       -5.03563
C          0.21251       -9.11108       -6.17746
C         -0.80568       -9.61416       -6.91174
C         -2.15996       -9.37209       -6.55382
N         -3.25526       -9.17217       -6.22999
C         -0.59001      -10.28442       -8.15614
N         -0.39677      -10.80155       -9.17637
C         -0.66085       -8.10607       -3.91229
C         -0.90271       -7.40779       -2.59941
C         -0.61676       -6.17720       -1.96938
C          0.48829       -5.32316       -1.65264
N          1.27179       -4.63047       -1.12209
S         -1.84844       -5.90608       -0.74146
C         -1.54365       -7.52775       -0.27930
C         -1.55397       -8.18850       -1.50435
C         -2.07055       -9.51724       -1.59205
N         -2.53835      -10.57361       -1.69654
N         -1.71468       -7.98324        0.99112
C         -1.01090       -7.56446        2.10077
S         -2.01297       -7.27392        3.50436
C         -0.69295       -6.89089        4.46644
N         -0.88567       -6.57603        5.84568
O         -0.26354       -7.27098        6.65897
O         -1.62484       -5.62070        6.11185
C          0.50017       -6.97085        3.80370
C          0.33732       -7.32605        2.40340
C          1.54703       -7.38322        1.61060
C          1.87315       -7.99344        0.45711
C          3.24966       -7.88806       -0.06120
C          3.64024       -7.54255       -1.30068
C          4.98837       -7.21979       -1.72502
C          5.02321       -6.37081       -2.77329
C          3.69709       -5.96097       -3.21421
S          2.57496       -7.18310       -2.60507
C          3.37412       -4.84395       -3.90838
C          4.27478       -3.88547       -4.52333
C          3.71887       -2.67261       -4.71554
C          2.36231       -2.58884       -4.20453
S          1.75243       -4.19224       -4.09939
C          1.76729       -1.46923       -3.75782
C          0.54149       -1.25450       -2.98413
C         -0.45335       -2.13061       -2.68917
C         -1.38211       -1.47223       -1.79904
C         -2.48014       -1.93272       -1.17012
C         -3.21099       -0.97400       -0.36489
C         -4.35879       -1.09843        0.32872
C         -4.71987        0.19754        0.92750
C         -3.75213        1.09915        0.64230
C         -2.78623        0.42442       -0.19468
C         -1.67212        0.87437       -0.80213
C         -0.94522       -0.08749       -1.61404
C          0.18858        0.03137       -2.32566
C         -5.89780        0.51073        1.69822
C         -7.13707        0.19772        1.29796
H          4.44017      -11.30421       -8.86317
H          6.26996       -8.21997       -5.43467
H          2.06646      -10.79780       -7.96952
H          4.07287       -7.06777       -5.39728
H         -1.30413       -8.99099       -3.94720
H         -2.70713       -8.05421        1.23040
H          1.45376       -6.78125        4.28745
H          2.36890       -6.82163        2.06561
H          1.15586       -8.58159       -0.10112
H          4.02458       -7.97902        0.70012
H          5.86513       -7.58170       -1.20912
H          5.92776       -5.96600       -3.20029
H          5.27628       -4.14802       -4.82704
H          4.22357       -1.83218       -5.16622
H          2.34095       -0.55020       -3.86808
H         -0.56810       -3.15024       -3.00144
H         -2.83476       -2.94936       -1.25637
H         -4.95727       -1.98967        0.43362
H         -3.72243        2.13854        0.92452
H         -1.32652        1.89563       -0.71802
H          0.78896        0.92264       -2.41618
H         -5.75311        1.04741        2.63281
H         -7.32335       -0.30582        0.35374
H         -8.00062        0.46533        1.89826
