93

C         -1.97404        5.85279        5.62142
C         -1.75682        7.11920        5.08188
F         -1.49959        8.14669        5.90292
C         -1.79313        7.31929        3.70937
F         -1.57469        8.53672        3.19593
C         -2.03370        6.25548        2.85049
C         -2.20173        4.96466        3.36597
C         -2.19130        4.75084        4.77609
C         -2.39308        3.44882        5.29416
C         -2.58962        2.37781        4.42644
C         -2.50685        2.62326        3.04812
C         -2.35151        3.88333        2.49898
C         -2.60826        1.37803        2.27991
O         -2.49712        1.26441        1.07532
C         -2.83823        0.29598        3.28157
C         -2.94969        0.93602        4.61267
C         -3.50594        0.40232        5.73173
C         -3.66298        1.13157        6.94320
N         -3.79145        1.72675        7.93072
C         -4.08668       -0.89440        5.75186
N         -4.59562       -1.94449        5.76268
C         -2.86534       -0.98657        2.88983
N         -2.80535       -1.49574        1.59762
C         -2.87978       -2.81066        1.22270
S         -2.36848       -4.09121        2.27862
C         -2.78290       -5.27481        1.16007
N         -2.61511       -6.64794        1.50460
O         -3.59774       -7.38018        1.33356
O         -1.50036       -7.00108        1.90850
C         -3.29781       -4.77598       -0.00638
C         -3.34874       -3.33892        0.01760
C         -3.88240       -2.54677       -1.06258
C         -4.84856       -2.96244       -1.89972
C         -5.44867       -2.16017       -2.94062
C         -4.87704       -1.69855       -4.07204
C         -3.42742       -1.88041       -4.42384
C         -5.68855       -0.95681       -5.12586
N         -6.61353       -1.89884       -5.77254
C         -7.91889       -1.99123       -5.32206
C         -8.41037       -2.92047       -4.49466
C         -9.76454       -2.96532       -3.99428
C        -10.46712       -1.98941       -3.39779
C        -11.79141       -2.19461       -2.86198
C        -12.22454       -1.17739       -2.10734
C        -11.28238       -0.07448       -2.01024
S         -9.91999       -0.35684       -3.08729
C        -11.41223        0.99561       -1.20479
C        -12.39330        1.13275       -0.14295
C        -12.43152        2.35423        0.40427
C        -11.55758        3.29114       -0.26412
S        -10.40470        2.44324       -1.27323
C        -11.67474        4.62754       -0.27986
C        -12.74078        5.35282        0.37831
C        -13.63485        6.16367       -0.22973
C        -13.63244        6.45775       -1.71025
C        -14.79572        6.80325        0.50906
N        -14.46439        6.98905        1.90642
C        -15.35187        7.02212        2.94266
C        -15.05229        7.27611        4.21726
H         -1.95430        5.74286        6.70289
H         -2.06594        6.44556        1.77983
H         -2.38696        3.32132        6.37319
H         -2.34349        4.00405        1.41888
H         -2.97299       -1.77414        3.61978
H         -2.82205       -0.76932        0.87826
H         -3.61999       -5.40292       -0.83031
H         -3.50241       -1.53408       -1.18105
H         -5.30900       -3.94069       -1.77355
H         -6.51428       -1.99371       -2.78377
H         -2.89328       -2.53574       -3.73168
H         -2.92540       -0.90750       -4.42170
H         -3.33184       -2.32027       -5.42178
H         -5.02341       -0.55471       -5.89858
H         -6.21496       -0.09946       -4.68829
H         -6.17452       -2.81760       -5.79973
H         -8.53801       -1.17403       -5.68858
H         -7.75847       -3.71076       -4.12794
H        -10.20445       -3.95972       -4.05462
H        -12.36560       -3.09052       -3.05336
H        -13.20304       -1.15922       -1.64885
H        -12.99835        0.30953        0.20950
H        -13.06846        2.62522        1.23439
H        -11.00245        5.21814       -0.89824
H        -12.85332        5.13619        1.44084
H        -12.65596        6.30176       -2.17655
H        -13.90240        7.50270       -1.89827
H        -14.36514        5.82240       -2.21953
H        -15.68065        6.16474        0.39371
H        -15.03295        7.78266        0.07872
H        -13.53642        7.35664        2.09612
H        -16.37952        6.79769        2.66145
H        -14.03651        7.48662        4.53200
H        -15.82430        7.25913        4.97876
