93

C        -16.23487       -2.45903       -0.32933
C        -17.43478       -3.01371        0.10686
F        -18.59157       -2.50045       -0.33277
C        -17.43720       -4.09002        0.98216
F        -18.59504       -4.63351        1.38086
C        -16.24122       -4.61775        1.45534
C        -15.02037       -4.06670        1.04314
C        -15.01096       -2.98074        0.11844
C        -13.78618       -2.45657       -0.34866
C        -12.58327       -2.98760        0.10400
C        -12.63535       -4.03568        1.03527
C        -13.81275       -4.58490        1.51584
C        -11.28820       -4.53072        1.33911
O        -10.98767       -5.34326        2.18985
C        -10.38465       -3.83398        0.37991
C        -11.14864       -2.73402       -0.24887
C        -10.66584       -1.68138       -0.95020
C        -11.50294       -0.65019       -1.47343
N        -12.17728        0.18217       -1.90050
C         -9.27817       -1.48071       -1.21224
N         -8.15730       -1.29682       -1.44590
C         -9.18791       -4.35582        0.07699
N         -8.59352       -5.51521        0.53205
C         -7.39308       -6.06887        0.18589
S         -6.80976       -7.38763        1.14974
C         -5.30662       -7.39029        0.37264
N         -4.22835       -8.22739        0.82572
O         -3.15597       -8.11922        0.21677
O         -4.43222       -8.97817        1.78900
C         -5.25983       -6.52526       -0.68939
C         -6.47520       -5.77693       -0.82234
C         -6.66190       -4.81197       -1.86750
C         -5.68807       -4.00979       -2.32342
C         -5.89404       -2.97244       -3.30453
C         -4.92127       -2.20382       -3.83453
C         -3.45358       -2.39256       -3.56488
C         -5.27255       -1.01667       -4.69460
N         -5.33710       -1.41518       -6.08408
C         -6.46851       -1.85035       -6.72196
C         -6.56653       -2.26633       -7.99046
C         -7.80802       -2.71554       -8.57854
C         -8.55941       -3.74607       -8.17065
C         -9.80517       -4.11137       -8.79929
C        -10.43344       -5.11507       -8.18338
C         -9.73872       -5.62535       -7.00927
S         -8.19150       -4.81807       -6.83333
C        -10.22858       -6.55114       -6.16393
C        -11.52551       -7.17248       -6.31589
C        -11.84683       -8.01708       -5.33559
C        -10.85419       -8.12491       -4.29186
S         -9.43316       -7.16752       -4.71307
C        -10.93211       -8.81747       -3.14015
C        -12.08791       -9.53704       -2.68257
S        -13.68830       -8.87052       -2.80778
C        -14.42312      -10.29029       -2.23248
C        -13.49231      -11.16736       -1.74226
C        -12.15292      -10.73284       -1.97498
O        -11.02754      -11.42582       -1.66597
C        -10.96791      -11.80267       -0.28903
C        -11.89589      -12.95922        0.06991
C        -13.35027      -12.51501        0.12134
O        -13.89692      -12.32821       -1.18087
H        -16.27452       -1.62063       -1.02054
H        -16.27873       -5.46274        2.13746
H        -13.82317       -1.66362       -1.08915
H        -13.77654       -5.41744        2.21376
H         -8.57913       -3.85387       -0.65119
H         -9.11252       -5.96768        1.29326
H         -4.39355       -6.41384       -1.33368
H         -7.65582       -4.72388       -2.29908
H         -4.69662       -4.08762       -1.88909
H         -6.92827       -2.76564       -3.57862
H         -3.20787       -3.40839       -3.24193
H         -3.12217       -1.69462       -2.78971
H         -2.86839       -2.21470       -4.47209
H         -4.51830       -0.23013       -4.57956
H         -6.22320       -0.56828       -4.37832
H         -4.45770       -1.67326       -6.52034
H         -7.35218       -1.83488       -6.08505
H         -5.70591       -2.22813       -8.64954
H         -8.12295       -2.13412       -9.44348
H        -10.19216       -3.60496       -9.67299
H        -11.38396       -5.49469       -8.52831
H        -12.19021       -6.98339       -7.14524
H        -12.77509       -8.56470       -5.34810
H        -10.05946       -8.86015       -2.49058
H        -15.49860      -10.39409       -2.22266
H         -9.93683      -12.12747       -0.10803
H        -11.13409      -10.93017        0.35707
H        -11.61445      -13.34456        1.05613
H        -11.78494      -13.76367       -0.66597
H        -13.94485      -13.30616        0.59195
H        -13.48827      -11.61656        0.73904
