93

C         -8.41750       -0.37668        5.08544
C         -7.79704       -0.15209        6.31297
F         -8.50218        0.39710        7.31146
C         -6.46986       -0.50598        6.51185
F         -5.89713       -0.33141        7.71057
C         -5.72404       -1.04891        5.47403
C         -6.32028       -1.26581        4.22536
C         -7.70356       -0.96479        4.02964
C         -8.33966       -1.29992        2.81049
C         -7.60842       -1.92323        1.80633
C         -6.23553       -2.12980        2.01400
C         -5.57291       -1.81460        3.18494
C         -5.65577       -2.89749        0.90940
O         -4.47801       -3.04912        0.66743
C         -6.83366       -3.45737        0.17710
C         -7.98536       -2.59303        0.52390
C         -9.08648       -2.35204       -0.22727
C         -9.29130       -3.00155       -1.47944
N         -9.44985       -3.56109       -2.48308
C        -10.08298       -1.40092        0.15001
N        -10.88392       -0.62487        0.46219
C         -6.76987       -4.67815       -0.39380
C         -5.58288       -5.50436       -0.45013
C         -4.71423       -5.50519       -1.52208
C         -4.83775       -4.72077       -2.71094
N         -4.96039       -4.07902       -3.66962
S         -3.39506       -6.55755       -1.27488
C         -3.93650       -7.02277        0.28403
C         -5.12573       -6.38358        0.60394
C         -5.81963       -6.57887        1.84665
N         -6.43169       -6.71152        2.82340
C         -3.15656       -7.92663        1.09103
O         -3.14857       -7.85661        2.48005
C         -2.30560       -8.94753        0.76379
C         -1.74940       -9.66004       -0.34673
O         -1.96584       -9.49938       -1.53331
N         -0.91292      -10.59422        0.23151
C         -0.88926      -10.55631        1.61040
O         -0.25077      -11.26221        2.36854
C         -1.78990       -9.49628        1.94246
C         -2.29451       -8.82116        3.02054
C         -2.05581       -8.99175        4.41053
C         -2.18026       -7.94748        5.24297
C         -1.94752       -8.02141        6.67452
C         -1.93617       -6.98107        7.52351
C         -1.65581       -7.08490        8.93752
C         -1.47511       -5.89862        9.53690
C         -1.58754       -4.76549        8.63314
S         -2.18073       -5.31300        7.06736
C         -1.20665       -3.49868        8.88458
C         -0.59799       -3.01303       10.10955
C         -0.06502       -1.78792        9.99803
C         -0.22985       -1.20924        8.68484
S         -1.25464       -2.20437        7.68523
C          0.38785       -0.09523        8.26951
C          0.28828        0.46872        6.93603
C          1.32220        0.69677        6.11087
C          1.37142        1.36815        4.79010
C          0.35445        1.52711        3.90524
C          0.51914        2.16668        2.64292
N          0.64364        2.70220        1.62086
C         -0.96697        1.04438        4.14127
N         -2.05098        0.66759        4.31594
C          2.80670        1.74086        4.56623
C          3.58474        1.13292        5.55400
C          2.74280        0.41054        6.51221
O          3.16141       -0.23771        7.44895
C          4.96366        1.27856        5.67146
C          5.61189        2.13390        4.75582
C          4.84276        2.76135        3.76458
C          3.44082        2.56943        3.64609
S          5.82450        3.77831        2.76959
C          7.21273        3.41709        3.65836
C          6.99204        2.52580        4.67369
Br         8.88738        4.17352        3.29544
H         -9.46307       -0.10002        4.97778
H         -4.68666       -1.31855        5.66028
H         -9.40769       -1.12412        2.71564
H         -4.51984       -2.06027        3.29816
H         -7.67303       -5.14046       -0.78352
H         -0.37315      -11.24982       -0.30786
H         -1.74401       -9.96881        4.76896
H         -2.45098       -6.97542        4.83280
H         -1.74252       -9.01429        7.07097
H         -1.57074       -8.03454        9.44759
H         -1.22830       -5.79840       10.58412
H         -0.53254       -3.59974       11.01427
H          0.47147       -1.28714       10.79221
H          1.06774        0.41695        8.94889
H         -0.73115        0.72964        6.66813
H          5.50718        0.78564        6.47340
H          2.91453        3.11004        2.86864
H          7.76333        2.17719        5.35027
