100

C        -10.92852       -7.36920       -5.19245
C        -10.58125       -7.42486       -6.53956
F        -11.45924       -7.91855       -7.42339
C         -9.33206       -6.99585       -6.96192
F         -8.99160       -7.07966       -8.25532
C         -8.41168       -6.49548       -6.04643
C         -8.72713       -6.45791       -4.67910
C        -10.00433       -6.90775       -4.23974
C        -10.30982       -6.93311       -2.85970
C         -9.34603       -6.58748       -1.91436
C         -8.10675       -6.14057       -2.38752
C         -7.78717       -6.03100       -3.73578
C         -7.17667       -5.89382       -1.27951
O         -6.06842       -5.41543       -1.40094
C         -7.90111       -6.28425       -0.02309
C         -9.29013       -6.66915       -0.41360
C        -10.27745       -7.14688        0.39270
C        -10.15490       -7.30193        1.80447
N        -10.06579       -7.44422        2.95234
C        -11.53042       -7.60017       -0.09718
N        -12.55348       -7.99543       -0.48719
C         -7.30722       -6.35178        1.17991
C         -5.91461       -6.49152        1.38358
S         -5.19936       -8.06058        1.52733
C         -5.01333       -5.54190        1.74408
S         -5.00738       -3.74288        1.88103
C         -3.35519       -4.00627        2.52964
N         -2.86011       -5.23816        2.69098
C         -3.80955       -6.09010        2.20039
C         -3.75315       -7.45707        2.24736
C         -2.77438       -8.27218        2.87599
C         -2.42117       -9.51706        2.51193
C         -1.42052      -10.25147        3.27728
C         -0.17369       -9.82952        3.54761
C          0.69413      -10.40823        4.54795
C          1.67467       -9.57223        4.93159
C          1.65303       -8.29238        4.23508
S          0.56482       -8.40419        2.85797
C          2.24425       -7.14284        4.61613
C          3.03815       -6.94120        5.81287
C          3.28419       -5.65006        6.08866
C          2.70121       -4.72800        5.13536
S          2.01972       -5.59691        3.78468
C          2.64309       -3.39611        5.31531
C          1.91022       -2.51045        4.46256
C          2.31007       -1.72213        3.37097
C          3.67366       -1.69397        2.94499
N          4.79451       -1.67429        2.64878
C          1.20239       -1.02838        2.82783
C          0.06123       -1.23627        3.52441
S          0.22001       -2.26699        4.82304
S         -1.28598       -0.41153        2.93899
C         -0.34399        0.16354        1.66995
C          0.95577       -0.21290        1.71543
C          1.69900        0.30521        0.63398
C          3.11636        0.37643        0.46770
N          4.25125        0.54425        0.30134
C          0.82560        0.80017       -0.34927
S         -0.73551        1.12846        0.36215
C          1.05598        1.21601       -1.69335
C          1.08507        0.41591       -2.77520
C          1.65263        1.06229       -4.02385
O          1.83746        2.24238       -4.23027
C          1.97526       -0.03298       -4.95439
C          2.58414        0.08714       -6.20302
C          2.78877       -1.07439       -6.97027
C          2.30859       -2.31761       -6.47731
C          2.48437       -3.48820       -7.23001
C          3.16551       -3.44387       -8.43840
C          3.65199       -2.23921       -8.92194
C          3.45755       -1.05539       -8.20820
F          4.32283       -2.20591      -10.08145
F          3.35890       -4.58030       -9.12173
C          1.67511       -2.38502       -5.22571
C          1.56164       -1.25722       -4.41835
C          0.95189       -1.03262       -3.06061
C          0.32400       -2.01798       -2.37181
C         -0.67659       -1.81021       -1.38664
N         -1.55985       -1.76294       -0.63924
C          0.56420       -3.40490       -2.60742
N          0.79422       -4.52776       -2.78012
H        -11.91376       -7.72510       -4.90039
H         -7.43960       -6.17457       -6.41139
H        -11.29656       -7.28327       -2.57822
H         -6.80197       -5.67722       -4.03062
H         -7.86429       -6.55448        2.08326
H         -2.78060       -3.13325        2.80430
H         -2.27206       -7.80412        3.72257
H         -2.88306      -10.03723        1.67862
H         -1.79394      -11.16354        3.73833
H          0.50621      -11.37134        5.00190
H          2.37141       -9.80441        5.72501
H          3.35303       -7.75130        6.45368
H          3.81482       -5.32039        6.97215
H          3.09090       -2.95656        6.20358
H          1.28921        2.27669       -1.81388
H          2.90361        1.06424       -6.55954
H          2.12049       -4.45008       -6.87560
H          3.85180       -0.13242       -8.62407
H          1.28449       -3.35127       -4.93134
