99

C        -14.94156       -8.09629       -9.29823
C        -14.37022       -9.12080      -10.05273
F        -15.11762       -9.76034      -10.96266
C        -13.04462       -9.48484       -9.86432
F        -12.49912      -10.46345      -10.59900
C        -12.27274       -8.84970       -8.90157
C        -12.83625       -7.84172       -8.10984
C        -14.18636       -7.43098       -8.31699
C        -14.73916       -6.38673       -7.53192
C        -13.97953       -5.78754       -6.52933
C        -12.67709       -6.27378       -6.32724
C        -12.08137       -7.25564       -7.09851
C        -12.03091       -5.60663       -5.19671
O        -10.94628       -5.87939       -4.72030
C        -12.97034       -4.53156       -4.77383
C        -14.23402       -4.69745       -5.52897
C        -15.40054       -4.02264       -5.33334
C        -16.54975       -4.20994       -6.15169
N        -17.48404       -4.34706       -6.82267
C        -15.58685       -3.07359       -4.28674
N        -15.75553       -2.29886       -3.43275
C        -12.53530       -3.57530       -3.94408
N        -11.29949       -3.43275       -3.33719
C        -10.90427       -2.44930       -2.47269
S        -12.00069       -1.22987       -1.89712
C        -10.77384       -0.38918       -1.12526
N        -11.04816        0.90315       -0.59320
O        -10.32600        1.82169       -1.00126
O        -11.96240        0.99968        0.23368
C         -9.56680       -1.03403       -1.14925
C         -9.63143       -2.23464       -1.94312
C         -8.48695       -3.07171       -2.20927
C         -7.23986       -2.58376       -2.30576
N         -6.04506       -3.22971       -2.54439
C         -4.80586       -2.65723       -2.69140
S         -4.58402       -0.93427       -2.62009
C         -2.91753       -1.06441       -2.73394
N         -2.13475        0.12207       -2.62723
O         -1.26653        0.12645       -1.74614
O         -2.37446        1.03479       -3.42733
C         -2.47338       -2.35259       -2.87975
C         -3.57158       -3.28454       -2.90006
C         -3.34680       -4.69937       -3.06456
C         -4.15794       -5.55530       -3.70438
N         -3.99553       -6.91120       -3.90045
C         -4.89583       -7.78049       -4.45208
S         -6.60262       -7.46582       -4.44845
C         -6.94497       -8.94459       -5.16828
N         -8.30447       -9.31346       -5.37871
O         -8.64165       -9.54702       -6.54558
O         -9.01977       -9.42415       -4.37445
C         -5.83061       -9.67060       -5.50081
C         -4.63652       -9.03352       -5.01268
C         -3.31723       -9.61027       -5.08441
C         -3.07851      -10.93128       -5.06664
C         -1.76420      -11.54311       -5.02365
C         -1.48522      -12.75965       -5.51850
C         -0.33420      -13.53805       -4.96904
O          0.63302      -13.11861       -4.36981
C         -0.69104      -14.95335       -5.18961
C          0.00842      -16.04341       -4.69398
C         -0.53389      -17.31795       -4.88174
C         -1.79343      -17.46066       -5.54334
C         -2.33649      -18.75246       -5.66880
C         -1.64457      -19.86433       -5.18850
C         -0.40985      -19.71643       -4.57366
C          0.14640      -18.45286       -4.41041
F          0.25893      -20.79019       -4.13154
F         -2.18036      -21.08348       -5.33372
C         -2.46657      -16.32041       -6.05475
C         -1.90440      -15.05989       -5.89736
C         -2.29964      -13.68112       -6.32507
C         -3.03286      -13.31843       -7.40027
C         -3.00413      -11.99105       -7.93928
N         -2.97017      -10.92146       -8.39548
C         -3.86056      -14.22295       -8.12029
N         -4.59447      -14.91309       -8.69204
H        -15.98344       -7.84385       -9.47933
H        -11.23934       -9.16155       -8.76880
H        -15.76386       -6.09048       -7.73296
H        -11.05801       -7.56026       -6.89494
H        -13.18725       -2.74796       -3.70261
H        -10.62057       -4.14306       -3.63375
H         -8.67752       -0.64525       -0.66622
H         -8.65289       -4.13569       -2.35742
H         -7.11778       -1.50988       -2.19413
H         -6.12212       -4.24412       -2.54614
H         -1.42667       -2.61627       -2.98000
H         -2.41301       -5.08682       -2.66101
H         -5.05665       -5.16993       -4.17980
H         -3.09522       -7.27434       -3.59469
H         -5.87387      -10.62242       -6.01592
H         -2.47286       -8.92587       -5.14383
H         -3.91778      -11.62254       -5.01253
H         -1.02413      -11.03876       -4.40164
H          0.94028      -15.89070       -4.15488
H         -3.30208      -18.91590       -6.14093
H          1.11129      -18.37366       -3.91695
H         -3.42519      -16.45281       -6.55166
