102

C         -5.58229      -11.09103       -6.86719
C         -5.68703      -10.82134       -8.23036
F         -5.91553      -11.82970       -9.08260
C         -5.57486       -9.52247       -8.70360
F         -5.70849       -9.26413      -10.01161
C         -5.33503       -8.47253       -7.82491
C         -5.22616       -8.71892       -6.44838
C         -5.37109      -10.04742       -5.95075
C         -5.34137      -10.29054       -4.55645
C         -5.19367       -9.23215       -3.66488
C         -5.02926       -7.94432       -4.19793
C         -5.01759       -7.66470       -5.55697
C         -4.99709       -6.94263       -3.12852
O         -4.78270       -5.75250       -3.24923
C         -5.31835       -7.68023       -1.86783
C         -5.26228       -9.12380       -2.16799
C         -5.21250      -10.14101       -1.27314
C         -5.27265       -9.94162        0.13490
N         -5.34295       -9.78205        1.28168
C         -5.06455      -11.49652       -1.66344
N         -4.93884      -12.61450       -1.99165
C         -5.69967       -6.98203       -0.78616
N         -5.83133       -5.60654       -0.69420
C         -6.17749       -4.83715        0.37925
S         -6.57595       -5.52051        1.91376
C         -6.78694       -4.00879        2.62470
N         -7.11939       -3.90483        4.01966
O         -7.20560       -2.75889        4.47618
O         -7.29358       -4.94892        4.66135
C         -6.60417       -2.97191        1.74196
C         -6.27621       -3.44370        0.42811
C         -6.06813       -2.58188       -0.71105
C         -6.62495       -1.36338       -0.86984
C         -6.55713       -0.61156       -2.09281
C         -7.47094        0.34587       -2.58290
C         -8.55499        0.80675       -1.76916
N         -9.36594        1.16490       -1.02894
C         -7.15848        0.70158       -3.91308
C         -5.99520        0.15275       -4.33043
S         -5.22165       -0.78946       -3.20006
S         -5.57350        0.51678       -5.91505
C         -7.01230        1.37364       -6.05796
C         -7.75078        1.45920       -4.93276
C         -8.91537        2.25816       -5.09290
C         -9.83077        2.61885       -4.05160
N        -10.58551        2.94235       -3.23184
C         -9.03850        2.72288       -6.42614
S         -7.70251        2.08654       -7.38123
C        -10.05639        3.58847       -7.12933
C        -11.44159        3.61859       -6.83746
C        -12.38212        4.48010       -7.52948
N        -13.68349        4.44761       -7.16357
C        -14.10189        3.62876       -6.16894
C        -13.21480        2.82955       -5.50778
N        -11.90038        2.79742       -5.86883
C        -13.60308        1.98152       -4.42126
N        -13.96011        1.29223       -3.55499
C        -15.51592        3.61329       -5.92082
N        -16.65866        3.57486       -5.73127
C        -12.01592        5.35925       -8.58394
C        -10.63160        5.31843       -8.93695
C         -9.64718        4.45114       -8.19523
N         -8.39537        4.62252       -8.65747
S         -8.44299        5.63285       -9.95064
N        -10.04315        6.00149       -9.93682
C        -12.95980        6.28332       -9.30107
C        -12.53750        7.53825       -9.79164
C        -13.43307        8.39113      -10.43276
C        -14.77668        8.03121      -10.62108
C        -15.23479        6.82054      -10.14792
C        -14.32863        5.96254       -9.50201
C        -15.46663        9.10434      -11.30135
C        -14.56398       10.17131      -11.50831
C        -13.17953        9.80124      -10.97217
C        -12.75915       10.73873       -9.83427
C        -12.13519        9.79522      -12.09415
C        -14.97187       11.34731      -12.12107
C        -16.29780       11.44360      -12.54712
C        -17.19128       10.37570      -12.36294
C        -16.77920        9.19703      -11.73425
H         -5.68932      -12.12132       -6.53652
H         -5.26401       -7.46507       -8.22707
H         -5.48843      -11.31097       -4.21472
H         -4.90018       -6.64134       -5.90434
H         -5.97714       -7.48568        0.13079
H         -5.58961       -5.13697       -1.57446
H         -6.69334       -1.92849        2.02210
H         -5.45375       -2.99530       -1.50781
H         -7.26128       -0.96060       -0.08451
H        -11.51387        7.88166       -9.67820
H        -16.27551        6.53128      -10.25218
H        -14.73974        5.02134       -9.14635
H        -13.49819       10.74570       -9.02351
H        -12.64738       11.77022      -10.18600
H        -11.80105       10.43165       -9.39871
H        -12.42212        9.12419      -12.91294
H        -11.15632        9.46488      -11.72789
H        -12.00592       10.79637      -12.52200
H        -14.28439       12.17361      -12.26831
H        -16.64366       12.35443      -13.03025
H        -18.21688       10.46826      -12.71251
H        -17.47720        8.37825      -11.59661
