98

C         -5.92051        2.10387        3.37989
C         -4.81692        2.77646        3.89856
F         -5.00333        3.92860        4.55677
C         -3.53691        2.26287        3.74149
F         -2.47944        2.92114        4.23561
C         -3.33618        1.06068        3.07370
C         -4.43073        0.36224        2.54727
C         -5.74987        0.89216        2.69320
C         -6.85904        0.19343        2.16818
C         -6.66080       -1.01587        1.51538
C         -5.35773       -1.52432        1.42520
C         -4.24020       -0.86282        1.90481
C         -5.37126       -2.88712        0.87621
O         -4.39367       -3.52581        0.55210
C         -6.82211       -3.27738        0.82690
C         -7.58879       -2.01442        0.91357
C         -8.80804       -1.75424        0.38313
C         -9.55794       -2.75022       -0.30733
N        -10.16635       -3.57043       -0.85753
C         -9.39190       -0.45427        0.40428
N         -9.85679        0.60788        0.43226
C         -7.25949       -4.54307        0.95012
C         -6.38762       -5.64409        1.10178
S         -5.88710       -6.30997        2.62131
C         -4.90293       -7.57874        1.88749
C         -5.03601       -7.43829        0.53524
C         -5.84202       -6.40348        0.14361
O         -5.96082       -6.34159       -1.20912
C         -5.14065       -7.44127       -1.51763
N         -4.56774       -8.14333       -0.52164
C         -4.18185       -8.49061        2.70968
C         -3.06761       -9.09446        2.26702
C         -2.27131       -9.97926        3.09481
C         -0.98075       -9.78298        3.40620
C         -0.20946      -10.63575        4.27962
C          0.97127      -10.10847        4.63617
C          1.21586       -8.79243        4.07137
S         -0.03802       -8.40590        2.89302
C          2.16590       -7.92362        4.46237
C          3.11965       -8.11132        5.53916
C          3.61468       -6.95597        6.00920
C          3.07445       -5.79327        5.33082
S          2.30142       -6.28059        3.85045
C          3.14389       -4.55728        5.84399
C          2.56017       -3.37561        5.32858
S          3.29145       -1.82979        5.57984
C          2.01481       -0.92675        4.78314
C          1.09817       -1.84741        4.36393
C          1.39529       -3.14326        4.69847
O          0.38870       -3.98064        4.32892
C         -0.44538       -3.03566        3.71379
N         -0.09029       -1.73483        3.72011
C          2.02484        0.49079        4.63989
C          3.01539        1.26222        5.11682
C          3.11045        2.68453        4.91619
C          3.16860        3.33756        3.74891
C          3.02895        4.82979        3.78828
O          3.17656        5.57233        4.73606
C          2.60604        5.21785        2.43476
C          2.22998        6.48961        2.03167
C          1.77470        6.65340        0.71835
C          1.66918        5.51729       -0.14041
C          1.18625        5.68633       -1.44486
C          0.83502        6.95042       -1.90189
C          0.95350        8.05762       -1.07175
C          1.41270        7.91881        0.23450
F          0.62727        9.27556       -1.52440
F          0.38738        7.09247       -3.15566
C          2.05539        4.24408        0.31421
C          2.56871        4.09564        1.59371
C          3.13120        2.93067        2.33638
C          3.72054        1.85182        1.76068
C          4.50316        0.90280        2.47901
N          5.17709        0.12271        3.01184
C          3.71630        1.63833        0.35323
N          3.71048        1.47415       -0.79805
H         -6.90626        2.53891        3.52513
H         -2.32295        0.67668        2.98004
H         -7.85515        0.60141        2.31834
H         -3.25718       -1.31842        1.81255
H         -8.31767       -4.76466        1.05016
H         -5.04377       -7.64062       -2.57666
H         -4.52209       -8.65385        3.72920
H         -2.67706       -8.89463        1.26947
H         -2.79843      -10.83792        3.50378
H         -0.57345      -11.58929        4.63527
H          1.65640      -10.59551        5.31463
H          3.36167       -9.07544        5.96215
H          4.29538       -6.88371        6.84635
H          3.70488       -4.43255        6.76920
H         -1.34220       -3.45917        3.27720
H          1.19325        0.93308        4.09489
H          3.83675        0.85221        5.70142
H          3.13477        3.25563        5.84679
H          2.28765        7.31973        2.73114
H          1.08831        4.84244       -2.12620
H          1.48919        8.80615        0.85691
H          1.93897        3.39447       -0.35443
