94

C          1.91948        5.11252        2.21321
C          3.18498        5.28607        2.77016
F          3.68829        6.52033        2.88746
C          3.91467        4.19348        3.21091
F          5.12902        4.36190        3.74793
C          3.39207        2.90848        3.11122
C          2.11391        2.71085        2.57322
C          1.36201        3.82675        2.10699
C          0.07180        3.62699        1.56362
C         -0.47736        2.34574        1.49900
C          0.28386        1.28135        1.99878
C          1.56201        1.42763        2.51360
C         -0.48049        0.02580        1.96988
O         -0.10736       -1.05018        2.39300
C         -1.81929        0.36656        1.39462
C         -1.79591        1.80881        1.02739
C         -2.72685        2.50750        0.33178
C         -3.95188        1.95254       -0.12711
N         -4.96785        1.54709       -0.51204
C         -2.57261        3.87594       -0.03291
N         -2.46805        4.98812       -0.34051
C         -2.78957       -0.56039        1.34453
N         -2.77646       -1.90582        1.68615
C         -3.82961       -2.78143        1.62489
S         -3.98003       -4.04694        2.79703
C         -5.48040       -4.52186        2.17855
N         -6.23335       -5.54979        2.81817
O         -7.38325       -5.24865        3.16403
O         -5.70379       -6.66243        2.91991
C         -5.86139       -3.83393        1.05780
C         -4.88498       -2.85082        0.71279
C         -4.94475       -2.05181       -0.47348
C         -6.06245       -1.63283       -1.08886
C         -6.02440       -0.78691       -2.24573
C         -6.96537        0.17494       -2.65548
C         -8.14026        0.41079       -1.86730
N         -9.06077        0.51162       -1.17555
C         -6.54243        0.80450       -3.84551
C         -5.35331        0.34233       -4.29309
S         -4.68523       -0.86071       -3.36563
S         -4.79780        1.05257       -5.71244
C         -6.20270        1.97517       -5.75434
C         -7.04503        1.77542       -4.71452
C         -8.20555        2.57178       -4.78549
C         -9.27331        2.67515       -3.84335
N        -10.14209        2.82015       -3.08669
C         -8.21011        3.30882       -5.97670
S         -6.73304        3.08784       -6.87310
C         -9.18501        4.19038       -6.52935
C        -10.13424        3.78298       -7.38805
C        -11.07710        4.67911       -8.01307
C        -11.91986        4.07215       -8.85922
C        -11.70929        2.63884       -8.98503
S        -10.38465        2.13749       -7.93209
C        -12.40427        1.80798       -9.78786
C        -13.52709        2.18508      -10.62753
C        -14.06877        1.17010      -11.31321
C        -13.43210       -0.10295      -11.06247
S        -12.06496        0.08647       -9.98207
C        -13.80142       -1.31267      -11.51186
C        -14.98138       -1.52110      -12.28188
S        -14.90114       -1.41716      -13.99500
C        -16.59030       -1.73975      -14.22719
C        -17.18508       -1.96313      -12.99579
C        -16.26479       -1.83964      -11.88628
C        -16.63381       -2.00120      -10.54228
C        -18.01428       -2.25585      -10.38186
S        -18.65522       -2.40490       -8.71348
C        -18.92346       -2.38903      -11.47976
C        -18.54775       -2.25732      -12.83635
C        -17.15153       -1.79410      -15.54228
C        -16.72555       -1.03144      -16.55844
H          1.38101        5.99690        1.87824
H          3.99350        2.07717        3.47219
H         -0.47123        4.50484        1.22891
H          2.09969        0.55735        2.88247
H         -3.78181       -0.27134        1.02550
H         -1.92064       -2.20110        2.17208
H         -6.76896       -4.04537        0.50306
H         -3.97517       -1.75434       -0.86673
H         -7.03641       -1.87109       -0.66575
H         -9.10579        5.24150       -6.26401
H        -11.08189        5.74509       -7.83006
H        -12.66892        4.61200       -9.42039
H        -13.91203        3.19272      -10.68761
H        -14.90772        1.28612      -11.98568
H        -13.22976       -2.19709      -11.24310
H        -15.95285       -1.92330       -9.70378
H        -19.75009       -1.65280       -8.90486
H        -19.97230       -2.60276      -11.26823
H        -19.26601       -2.36232      -13.63886
H        -17.98052       -2.47577      -15.71508
H        -15.92355       -0.30668      -16.45911
H        -17.18692       -1.11309      -17.53749
