116

C         -6.20930       -3.45469       14.77587
C         -6.19374       -4.12359       15.99683
F         -6.12025       -3.41406       17.13101
C         -6.23352       -5.50965       16.04306
F         -6.20729       -6.14713       17.22114
C         -6.27853       -6.25330       14.86961
C         -6.25474       -5.60328       13.62811
C         -6.22935       -4.17867       13.57367
C         -6.17979       -3.51518       12.32731
C         -6.07955       -4.24997       11.15093
C         -6.10043       -5.64874       11.24787
C         -6.21453       -6.34034       12.44386
C         -5.92984       -6.27248        9.93116
O         -5.79036       -7.46159        9.73363
C         -5.92475       -5.14513        8.94317
C         -5.85439       -3.88063        9.71800
C         -5.50416       -2.65597        9.25017
C         -5.05069       -2.45128        7.91399
N         -4.66774       -2.28271        6.83273
C         -5.50062       -1.48100       10.05657
N         -5.50912       -0.52012       10.70453
C         -6.15238       -5.34728        7.63598
C         -6.33362       -6.63663        6.99037
C         -7.43552       -7.00640        6.32054
C         -7.59173       -8.24585        5.59767
C         -8.73267       -8.32074        4.89521
C         -9.58107       -7.15068        5.03105
S         -8.87816       -6.03465        6.20921
C        -10.68324       -6.85664        4.31690
C        -11.22958       -7.58169        3.18410
C        -12.03938       -6.82890        2.41742
C        -12.17708       -5.46876        2.90590
S        -11.60502       -5.38212        4.55133
C        -12.61742       -4.43031        2.17526
C        -12.56050       -3.06227        2.59927
S        -13.77400       -1.94140        2.03570
C        -11.60086       -2.39115        3.36939
C        -11.93928       -1.04626        3.59861
C        -11.40928        0.13163        4.28789
C        -10.37378        0.19924        5.15979
C         -9.92768        1.48765        5.80402
N        -10.63088        1.71677        7.06086
C         -9.58739       -1.00488        5.62332
N         -8.44548       -1.27271        4.76146
C        -13.05330       -0.69915        2.87364
C        -13.25041        0.68892        3.00168
S        -14.24180        1.80357        2.28929
C        -12.28723        1.21299        3.83382
C        -12.42138        2.61587        3.94533
C        -13.46820        3.10917        3.16197
C        -13.78186        4.48176        2.90007
C        -15.00064        4.99070        2.66199
C        -15.20497        6.28315        2.03687
C        -16.34445        6.32292        1.32434
C        -17.09204        5.07539        1.40158
S        -16.53721        4.17668        2.80770
C        -17.89377        4.55221        0.45587
C        -18.16931        5.13433       -0.84354
C        -18.61579        4.24237       -1.74060
C        -18.73846        2.90230       -1.20450
S        -18.55594        2.91787        0.52815
C        -18.84061        1.80171       -1.96681
C        -18.85890        0.42966       -1.48969
C        -18.42194       -0.67229       -2.11967
C        -18.17621       -1.89058       -1.27094
O        -18.69641       -2.19326       -0.21822
C        -17.11681       -2.64455       -1.96458
C        -16.46822       -3.77509       -1.49004
C        -15.46300       -4.34285       -2.28386
C        -15.10484       -3.72300       -3.51875
C        -14.10406       -4.30152       -4.31288
C        -13.48039       -5.47639       -3.90648
C        -13.82719       -6.07845       -2.70548
C        -14.80598       -5.51852       -1.88928
F        -13.22522       -7.21269       -2.32189
F        -12.54650       -6.02768       -4.69344
C        -15.76769       -2.55626       -3.94743
C        -16.81097       -2.03844       -3.19194
C        -17.78250       -0.92875       -3.41749
C        -18.18242       -0.49189       -4.63618
C        -19.35891        0.28481       -4.81914
N        -20.31879        0.91865       -4.99618
C        -17.52888       -0.85907       -5.84550
N        -16.97883       -1.14328       -6.82825
H         -6.16984       -2.36815       14.78214
H         -6.30088       -7.33758       14.94042
H         -6.18115       -2.43027       12.33084
H         -6.22442       -7.42753       12.44092
H         -6.29162       -4.51268        6.95319
H         -5.48717       -7.31855        7.05282
H         -6.83794       -9.02154        5.60742
H         -8.99602       -9.16920        4.27971
H        -10.95401       -8.59759        2.93999
H        -12.48476       -7.16855        1.49214
H        -12.98764       -4.61492        1.16974
H        -10.70141       -2.86635        3.73474
H        -10.06524        2.34551        5.14525
H         -8.84806        1.47644        5.99218
H        -11.63444        1.75176        6.87445
H        -10.49403        0.92313        7.68307
H        -10.22566       -1.89020        5.68482
H         -9.22685       -0.85777        6.64936
H         -8.06362       -2.19217        4.98110
H         -7.69666       -0.60892        4.95202
H        -11.78369        3.27966        4.51182
H        -12.91867        5.13206        2.77407
H        -14.46634        7.07196        2.04976
H        -16.63881        7.15590        0.70348
H        -17.95946        6.16558       -1.08768
H        -18.81133        4.47666       -2.77809
H        -18.84137        1.96699       -3.03499
H        -19.17066        0.31336       -0.44749
H        -16.75343       -4.20016       -0.53071
H        -13.81125       -3.86193       -5.26349
H        -15.05678       -6.02026       -0.95876
H        -15.45207       -2.09077       -4.87617
