106

C        -13.53558       -1.34193       -9.15934
C        -13.06114       -0.49870      -10.16132
F        -13.80090       -0.30541      -11.26181
C        -11.83207        0.12951      -10.03089
F        -11.36111        0.91058      -11.01191
C        -11.07518       -0.04097       -8.87893
C        -11.54862       -0.85164       -7.83932
C        -12.78297       -1.54919       -7.99161
C        -13.21761       -2.44929       -6.99022
C        -12.45363       -2.63857       -5.84295
C        -11.29080       -1.86609       -5.69841
C        -10.81380       -0.99274       -6.66180
C        -10.59156       -2.20551       -4.45774
O         -9.62924       -1.63178       -3.98902
C        -11.27601       -3.42646       -3.93424
C        -12.53401       -3.59490       -4.68885
C        -13.57047       -4.42221       -4.37575
C        -13.55056       -5.30203       -3.25394
N        -13.53261       -6.03775       -2.36590
C        -14.76060       -4.47310       -5.14379
N        -15.74319       -4.51310       -5.77444
C        -10.61699       -4.22869       -3.08431
N         -9.35902       -4.02694       -2.54653
C         -8.61758       -4.87114       -1.77375
S         -9.39555       -5.94025       -0.65114
C         -7.93156       -6.57950       -0.14280
N         -7.94286       -7.66053        0.78403
O         -7.44969       -8.72421        0.38738
O         -8.41640       -7.44153        1.90554
C         -6.83795       -6.01113       -0.74144
C         -7.22505       -5.00981       -1.70781
C         -6.21919       -4.33558       -2.50084
C         -6.38739       -3.40009       -3.44808
C         -5.32656       -2.77086       -4.19910
C         -5.49775       -1.56474       -4.65792
C         -5.76024       -0.34078       -5.02748
C         -6.16906        0.08195       -6.43828
C         -6.96853        1.30003       -6.19431
C         -7.01384        1.65094       -4.90573
C         -6.19042        0.76351       -4.05350
C         -7.94167        2.73165       -4.70835
C         -8.47352        3.00941       -5.92065
C         -7.86611        2.14750       -7.00257
C         -8.35609        3.32878       -3.46432
C         -8.87079        4.56104       -3.36023
N         -9.36157        5.16274       -2.21751
C        -10.70259        5.21963       -1.94104
S        -11.88643        5.00643       -3.18847
C        -13.16549        5.14985       -2.10778
N        -14.51533        5.07009       -2.58749
O        -15.38850        5.46967       -1.81059
O        -14.71416        4.61541       -3.72369
C        -12.75241        5.34619       -0.80899
C        -11.32121        5.36998       -0.70193
C        -10.64385        5.33852        0.56298
C        -10.11093        6.31379        1.31478
C         -9.96160        7.73150        1.09704
C        -10.85333        8.71102        0.89565
C        -10.29068       10.01145        0.40637
O         -9.19516       10.48514        0.61921
C        -11.32150       10.54447       -0.49527
C        -11.09007       11.48200       -1.49112
C        -12.05857       11.62797       -2.48696
C        -13.26450       10.86593       -2.41287
C        -14.13112       10.88383       -3.51945
C        -13.82111       11.63662       -4.65151
C        -12.69341       12.44201       -4.67498
C        -11.81566       12.45113       -3.59813
F        -12.41723       13.18915       -5.75399
F        -14.60409       11.54645       -5.73566
C        -13.52184       10.03430       -1.29478
C        -12.51080        9.80547       -0.37063
C        -12.30255        8.76422        0.68708
C        -13.24433        8.09023        1.39259
C        -12.90882        7.26606        2.51405
N        -12.65943        6.59099        3.42581
C        -14.62135        8.15291        1.06947
N        -15.74717        8.16805        0.76352
H        -14.49663       -1.82846       -9.30704
H        -10.11421        0.45897       -8.81476
H        -14.13168       -3.00528       -7.17095
H         -9.87371       -0.47120       -6.50069
H        -11.02319       -5.19350       -2.80360
H         -8.95208       -3.13686       -2.83740
H         -5.81816       -6.30714       -0.52291
H         -5.18866       -4.62878       -2.28919
H         -7.36213       -3.03427       -3.73078
H         -4.38034       -3.28354       -4.32760
H         -6.77624       -0.68746       -6.92409
H         -5.28845        0.30407       -7.04775
H         -6.76029        0.36009       -3.21066
H         -5.30790        1.29464       -3.68072
H         -9.25322        3.73034       -6.12265
H         -7.32200        2.75971       -7.72635
H         -8.63595        1.56206       -7.50538
H         -8.28742        2.70162       -2.57918
H         -9.01911        5.18116       -4.24425
H         -8.75217        5.01651       -1.41568
H        -13.43792        5.41802        0.02491
H        -10.55370        4.33394        0.98543
H         -9.61222        5.99113        2.23378
H         -8.90626        8.02166        1.11947
H        -10.12321       11.97540       -1.55796
H        -15.01928       10.25600       -3.55069
H        -10.92276       13.06769       -3.66458
H        -14.47474        9.51641       -1.23686
