106

C         -9.25585       -4.08459       11.43639
C        -10.57013       -4.14190       11.89577
F        -10.94092       -3.36150       12.91999
C        -11.49077       -4.99214       11.30040
F        -12.76089       -5.01878       11.72598
C        -11.10453       -5.83077       10.26226
C         -9.77851       -5.81632        9.80676
C         -8.83931       -4.90185       10.37313
C         -7.52306       -4.82031        9.85627
C         -7.13392       -5.66108        8.82004
C         -8.06438       -6.60147        8.35267
C         -9.37101       -6.69155        8.79999
C         -7.47578       -7.41798        7.28841
O         -7.81785       -8.54098        6.98617
C         -6.28111       -6.64343        6.83126
C         -5.90031       -5.77882        7.97704
C         -4.66758       -5.28930        8.25669
C         -3.54088       -5.55600        7.42280
N         -2.63151       -5.77129        6.73641
C         -4.39342       -4.52813        9.42756
N         -4.17953       -3.90587       10.38181
C         -5.89016       -6.56090        5.54421
C         -6.54530       -7.19075        4.31632
C         -5.98172       -8.63356        4.16982
N         -7.93009       -7.32714        4.48657
N         -8.94779       -7.20090        3.44599
C         -8.67734       -6.88649        2.12686
C         -7.40251       -6.19101        2.09330
C         -6.36677       -6.37281        3.11918
N         -5.30125       -5.63959        2.75037
O         -5.68155       -4.93995        1.62441
N         -6.96215       -5.26595        1.22422
C         -9.86161       -6.13059        1.47881
C         -8.54397       -8.15951        1.27447
C         -9.14013       -9.35655        1.42086
C        -10.08977       -9.78751        2.41812
C        -10.40947      -11.09164        2.33702
C         -9.70595      -11.80960        1.29273
S         -8.77333      -10.67242        0.31435
C         -9.64870      -13.14971        1.16537
C        -10.28670      -14.13108        2.02837
C         -9.66803      -15.32452        2.01754
C         -8.49176      -15.32995        1.16430
S         -8.58260      -13.99047        0.04913
C         -7.43636      -16.14081        1.37187
C         -5.99158      -16.03992        0.84379
C         -5.98454      -16.13345       -0.69343
N         -5.29841      -17.15225        1.35603
N         -4.23448      -17.15276        2.38681
C         -3.75970      -16.03715        3.03928
C         -4.35692      -14.83962        2.45606
C         -5.38202      -14.84413        1.41534
N         -5.61103      -13.56093        1.08498
O         -4.86479      -12.78487        1.93151
N         -4.08986      -13.55553        2.76293
C         -4.12704      -16.10477        4.56093
C         -2.24526      -15.94216        3.05904
C         -1.20489      -16.79544        3.05653
C          0.10936      -16.07117        2.87689
O          0.32682      -14.87602        2.91098
C          1.12288      -17.08590        2.62196
C          2.46138      -16.81503        2.36751
C          3.33024      -17.89019        2.18827
C          2.81598      -19.21607        2.23653
C          3.70710      -20.29119        2.08437
C          5.06708      -20.05748        1.89494
C          5.55891      -18.76176        1.83850
C          4.70102      -17.67717        1.97797
F          6.86843      -18.54304        1.65784
F          5.90070      -21.09964        1.77496
C          1.43386      -19.43559        2.45592
C          0.56837      -18.36620        2.68292
C         -0.89520      -18.24504        3.05362
C         -1.64565      -19.29544        3.47705
C         -2.92950      -19.19250        4.07201
N         -3.94554      -19.22756        4.63829
C         -1.17241      -20.64256        3.48885
N         -0.79869      -21.74116        3.51657
H         -8.56828       -3.39919       11.92563
H        -11.84838       -6.48756        9.81873
H         -6.85224       -4.07345       10.27069
H        -10.04751       -7.41171        8.34726
H         -5.08345       -5.88050        5.27880
H         -5.87956       -9.13082        5.13945
H         -4.97731       -8.59125        3.73117
H         -6.61088       -9.23338        3.50306
H         -9.99809       -5.15131        1.94769
H        -10.78463       -6.71133        1.59875
H         -9.71163       -6.01227        0.39845
H         -7.85044       -8.03863        0.43880
H        -10.48381       -9.14516        3.18657
H        -11.07790      -11.57237        3.03744
H        -11.12968      -13.90212        2.66520
H         -9.94467      -16.15205        2.65598
H         -7.53165      -16.90076        2.14989
H         -6.66538      -16.90953       -1.05518
H         -4.96288      -16.33439       -1.03831
H         -6.28612      -15.18763       -1.15272
H         -5.17267      -16.40482        4.68718
H         -3.99325      -15.11858        5.02379
H         -3.45873      -16.76357        5.11964
H         -1.96851      -14.88069        3.03856
H          2.80816      -15.78479        2.33558
H          3.36248      -21.32140        2.12922
H          5.11822      -16.67449        1.93381
H          1.09337      -20.46464        2.45649
