95

C        -18.06132       -4.10669       -2.66137
C        -18.61697       -4.53744       -3.87452
F        -19.95012       -4.58834       -4.01808
C        -17.79968       -4.94303       -4.91618
F        -18.32250       -5.45165       -6.04104
C        -16.42390       -4.83774       -4.79496
C        -15.84814       -4.36970       -3.60493
C        -16.65478       -4.06488       -2.47310
C        -16.00750       -3.80071       -1.21727
C        -14.60521       -3.83253       -1.11043
C        -13.88063       -4.00328       -2.29576
C        -14.46208       -4.26322       -3.52584
C        -12.43825       -4.08346       -2.04466
O        -11.55616       -4.07694       -2.87938
C        -12.29333       -4.23038       -0.56656
C        -13.60432       -3.85407        0.02896
C        -13.81375       -3.51488        1.31932
C        -15.09278       -3.07042        1.78512
N        -16.13086       -2.71848        2.14100
C        -12.78777       -3.53180        2.30979
N        -11.95217       -3.55342        3.12959
C        -11.17319       -4.80178       -0.07811
N        -10.02629       -5.15017       -0.78722
C         -8.85346       -5.71570       -0.35151
S         -8.76292       -6.74217        1.04666
C         -7.08120       -6.81878        0.96306
N         -6.34909       -7.47708        1.99962
O         -5.52218       -6.78637        2.60861
O         -6.56824       -8.68238        2.17575
C         -6.55351       -6.17069       -0.12477
C         -7.58880       -5.61222       -0.95341
C         -7.36648       -4.95724       -2.22447
C         -6.19185       -4.76207       -2.85390
C         -6.10722       -4.09843       -4.14901
C         -5.25902       -3.09703       -4.47942
C         -4.31473       -2.49488       -3.46433
C         -5.43593       -2.33733       -5.79322
N         -4.69558       -2.91550       -6.93100
C         -5.09934       -2.63492       -8.23865
C         -4.58946       -2.99570       -9.43326
C         -5.03908       -2.49384      -10.75207
C         -6.27008       -2.08007      -11.11171
C         -6.66764       -1.37048      -12.31876
C         -7.87840       -0.78095      -12.21176
C         -8.52351       -1.02375      -10.92994
S         -7.66948       -2.30894      -10.10816
C         -9.57396       -0.41066      -10.35270
C        -10.36815        0.68354      -10.86905
C        -11.20181        1.21763       -9.96040
C        -11.11608        0.59323       -8.65686
S        -10.12563       -0.82767       -8.71698
C        -11.62570        1.01088       -7.48998
C        -12.39724        2.21696       -7.32718
C        -12.07404        3.25745       -6.54712
C        -12.85093        4.46844       -6.51547
C        -12.31551        5.42901       -5.75470
C        -11.07086        5.05202       -5.10693
S        -10.66276        3.38442       -5.52279
C        -10.32620        5.86171       -4.32338
C        -10.65139        7.24154       -3.99333
C         -9.74595        7.84428       -3.20969
C         -8.63594        6.99670       -2.87644
S         -8.80324        5.40453       -3.55963
C         -7.58963        7.36754       -2.12592
H        -18.75184       -3.83186       -1.86540
H        -15.80483       -5.17001       -5.62649
H        -16.64132       -3.66018       -0.34376
H        -13.82477       -4.46370       -4.38590
H        -11.08415       -5.04986        0.97425
H        -10.04167       -4.75723       -1.73500
H         -5.48869       -6.11574       -0.31783
H         -8.24947       -4.57845       -2.73484
H         -5.25400       -5.08845       -2.41402
H         -6.84854       -4.41541       -4.88332
H         -4.27257       -3.06552       -2.52978
H         -4.65113       -1.48868       -3.18830
H         -3.29238       -2.43914       -3.84461
H         -5.15319       -1.28452       -5.67061
H         -6.50830       -2.33329       -6.03459
H         -3.68724       -2.80616       -6.84482
H         -5.97601       -1.99701       -8.20308
H         -3.71629       -3.64163       -9.46176
H         -4.23347       -2.42886      -11.48485
H         -6.04269       -1.29451      -13.19944
H         -8.34009       -0.19146      -12.99268
H        -10.27711        1.04687      -11.88252
H        -11.85176        2.05681      -10.16216
H        -11.41088        0.45545       -6.57644
H        -13.29198        2.26725       -7.94352
H        -13.76126        4.58880       -7.08538
H        -12.76860        6.40403       -5.65394
H        -11.54195        7.74192       -4.33727
H         -9.83094        8.86695       -2.87005
H         -7.51499        8.36719       -1.71464
H         -6.78012        6.67916       -1.90740
