92

C          1.80985       -1.65168       -6.70234
C          2.54078       -0.71846       -5.96581
F          3.30962        0.17021       -6.60984
C          2.48071       -0.70719       -4.58027
F          3.18643        0.18853       -3.87661
C          1.69392       -1.63062       -3.90610
C          0.96266       -2.58496       -4.62651
C          1.00578       -2.60460       -6.05034
C          0.25654       -3.57591       -6.76974
C         -0.49956       -4.53269       -6.09207
C         -0.48748       -4.47732       -4.69412
C          0.20047       -3.53135       -3.94923
C         -1.29235       -5.54507       -4.11086
O         -1.37363       -5.76741       -2.92029
C         -1.95582       -6.25779       -5.26039
C         -1.38220       -5.68042       -6.51129
C         -1.55245       -6.13999       -7.77779
C         -0.89636       -5.56530       -8.90494
N         -0.35954       -5.10087       -9.82287
C         -2.38197       -7.25669       -8.09708
N         -3.06129       -8.15443       -8.36824
C         -2.89928       -7.18913       -5.03223
C         -3.27665       -7.64380       -3.69879
N         -2.60769       -8.67148       -3.13919
N         -2.78990       -9.06746       -1.76772
C         -3.62180       -8.46949       -0.86601
C         -4.40203       -7.41551       -1.43741
C         -4.23732       -7.00282       -2.88439
N         -5.06812       -6.00185       -3.23829
S         -5.95778       -5.62077       -1.89054
N         -5.33032       -6.68672       -0.78359
N         -3.72008       -8.83650        0.49481
C         -3.05811       -9.83352        1.15604
S         -1.95138      -10.91691        0.38010
C         -1.59557      -11.73567        1.80165
N         -0.65832      -12.82476        1.80864
O         -0.43789      -13.34850        2.90796
O         -0.14200      -13.16695        0.73706
C         -2.29080      -11.24783        2.87887
C         -3.15621      -10.16056        2.51388
C         -4.02364       -9.48845        3.44720
C         -4.13454       -9.77757        4.75579
C         -5.03184       -9.09688        5.65972
C         -5.01240       -7.79353        5.96684
C         -4.09424       -6.78842        5.49243
C         -4.34412       -5.56328        5.97277
C         -5.49326       -5.50226        6.85862
S         -6.17679       -7.11507        7.07281
C         -6.00781       -4.39140        7.41751
C         -5.49736       -3.03980        7.28248
C         -6.29344       -2.10153        7.81553
C         -7.50125       -2.63749        8.40039
S         -7.47038       -4.38343        8.39311
C         -8.51341       -1.89655        8.87664
C         -9.75386       -2.42051        9.39967
C        -10.18809       -2.20837       10.66844
C        -11.39814       -2.97998       10.82112
C        -12.17481       -3.19066       11.90031
C        -13.29192       -4.09760       11.71466
C        -14.20575       -4.56923       12.58518
C        -15.10917       -5.51244       11.89879
C        -14.77083       -5.56209       10.58958
C        -13.61169       -4.72566       10.42391
C        -12.84652       -4.50335        9.34215
C        -11.70388       -3.63772        9.54392
C        -10.71849       -3.29043        8.70411
C        -16.22136       -6.22080       12.48803
C        -16.69085       -7.39709       12.05025
H          1.89098       -1.62641       -7.78620
H          1.67059       -1.60106       -2.81977
H          0.30653       -3.54353       -7.85369
H          0.14179       -3.55271       -2.86373
H         -3.42503       -7.72438       -5.81176
H         -4.34082       -8.20310        0.99082
H         -2.18593      -11.66367        3.87377
H         -4.65515       -8.69075        3.06140
H         -3.57853      -10.58917        5.21710
H         -5.75453       -9.74987        6.14932
H         -3.27821       -7.00716        4.81832
H         -3.75291       -4.69925        5.70697
H         -4.56336       -2.80734        6.79169
H         -6.07467       -1.04305        7.79524
H         -8.43992       -0.81214        8.86580
H         -9.70102       -1.63898       11.43921
H        -11.97455       -2.75091       12.86764
H        -14.26906       -4.33518       13.63621
H        -15.24799       -6.12481        9.80497
H        -13.03413       -4.95996        8.37977
H        -10.60283       -3.61681        7.68191
H        -16.67469       -5.76335       13.36462
H        -16.25098       -7.91429       11.20286
H        -17.52157       -7.88495       12.54860
