110

C          1.00336       -0.55565       -1.86490
C          2.33271       -0.96950       -1.91561
F          3.30364       -0.04751       -1.96577
C          2.65475       -2.31908       -1.89501
F          3.93667       -2.70822       -1.91569
C          1.65421       -3.28103       -1.83386
C          0.31015       -2.88853       -1.76754
C         -0.02942       -1.50083       -1.77356
C         -1.37493       -1.09343       -1.64398
C         -2.36959       -2.05192       -1.47967
C         -1.99441       -3.40331       -1.47350
C         -0.69481       -3.84718       -1.64250
C         -3.12689       -4.25213       -1.09585
O         -3.13975       -5.46156       -1.16159
C         -4.19318       -3.30082       -0.62726
C         -3.83039       -1.96998       -1.16347
C         -4.66270       -0.93933       -1.42628
C         -6.06091       -1.00812       -1.16335
N         -7.19731       -1.06425       -0.92857
C         -4.21539        0.27062       -2.02440
N         -3.83541        1.25882       -2.50464
C         -5.09857       -3.60413        0.31817
C         -5.10799       -4.86890        0.97265
S         -6.15454       -6.09285        0.39843
C         -5.51804       -7.26059        1.48113
C         -4.59122       -6.70012        2.34876
C         -4.37948       -5.29800        2.07804
C         -3.46537       -4.41946        2.75520
C         -3.78373       -3.66443        3.81712
O         -3.98986       -7.51495        3.26043
C         -3.54322       -6.89536        4.45430
C         -6.02102       -8.58932        1.39106
C         -5.44371       -9.46937        0.55995
C         -5.90826      -10.83250        0.40752
C         -5.17019      -11.90581        0.71882
C         -5.63111      -13.27306        0.66900
C         -4.85995      -14.10182        1.38672
C         -3.73667      -13.43484        2.02298
S         -3.56331      -11.81131        1.38888
C         -2.93723      -13.95329        2.96675
C         -3.08536      -15.26150        3.56536
C         -1.99596      -15.65677        4.23153
C         -0.93387      -14.67338        4.21396
S         -1.52083      -13.14024        3.62872
C          0.36297      -14.85514        4.49609
C          0.89188      -16.15658        4.71756
S          1.51258      -16.98235        3.34615
C          1.90519      -18.38642        4.24248
C          1.69017      -18.17768        5.60253
C          1.04110      -16.90090        5.88111
C          0.65707      -16.38817        7.17504
C         -0.49696      -15.79443        7.51317
O          2.12222      -19.14682        6.45989
C          1.46839      -19.21291        7.71710
C          2.49331      -19.48215        3.53463
C          1.81877      -20.46726        2.91314
C          0.38191      -20.63364        2.82448
C         -0.32787      -21.66735        3.30317
C         -1.80879      -21.52897        3.47586
O         -2.56848      -20.77984        2.90031
C         -2.16048      -22.46530        4.56784
C         -3.41354      -22.64010        5.12555
C         -3.54364      -23.54925        6.18299
C         -2.38572      -24.21640        6.69022
C         -2.52606      -25.10286        7.76789
C         -3.78217      -25.34779        8.31384
C         -4.90824      -24.71849        7.80257
C         -4.79775      -23.81801        6.74768
F         -6.11737      -24.97614        8.32072
F         -3.89533      -26.20838        9.33439
C         -1.12536      -24.00939        6.09564
C         -1.02060      -23.16749        4.99735
C          0.06816      -22.88054        4.02623
C          0.96560      -23.80655        3.60450
C          1.46047      -23.78195        2.27118
N          1.79629      -23.80228        1.15246
C          1.31619      -24.95514        4.37888
N          1.61958      -25.85797        5.02893
H          0.79488        0.51144       -1.87431
H          1.93990       -4.32978       -1.80975
H         -1.60114       -0.03262       -1.60946
H         -0.47764       -4.91197       -1.60376
H         -5.77729       -2.86531        0.73041
H         -2.44507       -4.39471        2.38099
H         -4.77936       -3.67351        4.25109
H         -3.03267       -3.05150        4.30746
H         -3.47179       -7.66624        5.22749
H         -4.25264       -6.14905        4.82493
H         -2.54124       -6.47325        4.32291
H         -6.87841       -8.85627        2.00115
H         -4.55070       -9.19727       -0.00078
H         -6.93431      -10.95744        0.07383
H         -6.51842      -13.58200        0.13677
H         -5.05144      -15.16145        1.48582
H         -3.97998      -15.86018        3.47862
H         -1.91872      -16.60971        4.73717
H          1.06692      -14.03115        4.41770
H          1.37623      -16.50292        7.97905
H         -1.29746      -15.59355        6.81502
H         -0.68039      -15.48156        8.53675
H          1.77389      -20.14041        8.20889
H          0.38065      -19.23245        7.60338
H          1.79813      -18.41351        8.38292
H          3.58160      -19.48541        3.47314
H          2.41426      -21.20340        2.37535
H         -0.15312      -19.78486        2.39458
H         -4.26643      -22.09001        4.73050
H         -1.66918      -25.62546        8.18677
H         -5.70227      -23.34635        6.37147
H         -0.25934      -24.53313        6.49257
