101

C        -17.58425       -5.15051       -1.89751
C        -18.09725       -4.66015       -3.09851
F        -19.36697       -4.23622       -3.14113
C        -17.30960       -4.60967       -4.23989
F        -17.80785       -4.12986       -5.38746
C        -15.99873       -5.06213       -4.20898
C        -15.47026       -5.57099       -3.01673
C        -16.26033       -5.60889       -1.82771
C        -15.70877       -6.10598       -0.62135
C        -14.40632       -6.58798       -0.59731
C        -13.68143       -6.55375       -1.80013
C        -14.16849       -6.05293       -2.99340
C        -12.35495       -7.13912       -1.63258
O        -11.67538       -7.54114       -2.55072
C        -12.15080       -7.27104       -0.15477
C        -13.51158       -7.17736        0.45515
C        -13.91116       -7.66568        1.65733
C        -13.01150       -8.32609        2.54517
N        -12.27310       -8.84970        3.27209
C        -15.26890       -7.62034        2.10255
N        -16.37208       -7.57704        2.45919
C        -10.93154       -7.32969        0.40925
C         -9.65238       -7.26012       -0.34475
N         -9.39199       -6.54542       -1.40193
C         -8.09038       -6.79244       -1.77794
C         -7.73099       -7.33429       -2.94257
C         -8.44640       -7.95996        0.22140
S         -6.98069       -7.18656       -0.43314
N         -6.38445       -8.44589       -1.31279
C         -6.71638       -8.33174       -2.56591
C         -6.24717       -9.24796       -3.63633
C         -5.06180       -9.84248       -3.45324
C         -4.46764      -10.84201       -4.31865
C         -4.13758      -12.06719       -3.87958
C         -3.32824      -13.03711       -4.57868
C         -2.94078      -14.06455       -3.80301
C         -3.44586      -13.99236       -2.44110
S         -4.59554      -12.66793       -2.30747
C         -3.07663      -14.73441       -1.38002
C         -2.05879      -15.76785       -1.33818
C         -1.77812      -16.20539       -0.09923
C         -2.55609      -15.55342        0.92612
S         -3.73827      -14.47882        0.23632
C         -2.42493      -15.69069        2.25392
N         -3.15946      -15.01351        3.20620
C         -3.18466      -15.12788        4.55799
S         -4.65593      -14.71761        5.37563
C         -3.98243      -15.06179        6.88266
N         -4.78773      -14.95741        8.05432
O         -4.89471      -15.98326        8.73818
O         -5.27615      -13.85035        8.30981
C         -2.66997      -15.45318        6.82641
C         -2.21157      -15.51117        5.47142
C         -0.88596      -15.92480        5.13164
C          0.20141      -15.14612        5.02530
C          0.24098      -13.73098        5.27389
C          0.60002      -12.70595        4.48810
C          0.52961      -11.36406        5.17378
O          0.22120      -11.11867        6.32294
C          0.93934      -10.37006        4.18496
C          1.21194       -9.03672        4.44514
C          1.74567       -8.27071        3.40662
C          1.80471       -8.81478        2.09120
C          2.34622       -8.04779        1.05157
C          2.91461       -6.80996        1.32905
C          2.89878       -6.29937        2.61980
C          2.28603       -7.00194        3.65233
F          3.50682       -5.13678        2.89095
F          3.52193       -6.13492        0.34390
C          1.41873      -10.14610        1.85903
C          1.12679      -10.96943        2.93832
C          1.06832      -12.46175        3.10521
C          1.58256      -13.32795        2.19510
C          1.67206      -14.72802        2.37250
N          1.79797      -15.88706        2.42920
C          2.19576      -12.90681        0.97385
N          2.71619      -12.57899       -0.01292
H        -18.23655       -5.17654       -1.02861
H        -15.40575       -5.01643       -5.11827
H        -16.33494       -6.09226        0.27006
H        -13.53029       -6.04847       -3.87358
H        -10.79045       -7.37177        1.48272
H         -8.34791       -7.41439       -3.82075
H         -8.55206       -8.82260        0.88780
H         -6.87855       -9.43478       -4.49434
H         -4.49119       -9.63306       -2.54541
H         -4.16716      -10.50859       -5.30767
H         -3.01907      -12.90672       -5.60667
H         -2.29156      -14.85653       -4.14819
H         -1.54618      -16.12342       -2.22098
H         -1.02468      -16.94795        0.12510
H         -1.70078      -16.39297        2.65222
H         -3.86780      -14.40780        2.78498
H         -2.07213      -15.68834        7.69906
H         -0.75903      -16.99160        4.95580
H          1.15500      -15.63519        4.84172
H         -0.07530      -13.50140        6.29662
H          1.10305       -8.64801        5.45428
H          2.40206       -8.42886        0.03481
H          2.29861       -6.57703        4.65232
H          1.44879      -10.51760        0.84004
