92

C          0.22680        7.09776       -7.43271
C         -0.92641        7.77458       -7.50728
C         -2.07300        7.12452       -6.91566
S         -1.59290        5.61805       -6.19438
C          0.06746        5.81310       -6.72567
O          0.96692        5.00560       -6.54694
C         -3.31935        7.61732       -6.95765
C         -4.52008        6.94779       -6.43426
C         -5.31036        6.07656       -7.20952
C         -6.48907        5.44729       -6.67879
N         -7.21215        4.60278       -7.44606
C         -6.79000        4.35056       -8.71239
C         -5.66625        4.95496       -9.22290
N         -4.93306        5.83129       -8.48358
C         -5.18660        4.70417      -10.54901
N         -4.81229        4.49191      -11.62638
C         -7.58091        3.42144       -9.46188
N         -8.20532        2.67165      -10.09155
C         -6.91411        5.66852       -5.35697
C         -6.13377        6.52279       -4.53443
C         -4.90639        7.18646       -5.08997
N         -4.28502        7.97464       -4.19375
S         -5.13342        7.85508       -2.77516
N         -6.35373        6.83611       -3.24484
C         -8.07169        4.99461       -4.75564
C         -9.33317        5.43809       -4.75421
C         -9.87487        6.63758       -5.34485
C        -11.04241        7.00942       -4.79407
C        -11.48794        6.11265       -3.73626
S        -10.55980        4.61374       -3.81913
C        -12.34377        6.40112       -2.73645
C        -12.94231        7.69623       -2.46388
C        -13.45456        7.79937       -1.22750
C        -13.33320        6.58491       -0.45051
S        -12.73769        5.27671       -1.43603
C        -13.59905        6.48828        0.86208
C        -13.45179        5.26989        1.67061
C        -12.22469        4.95554        2.27621
C        -12.13305        3.78958        3.03283
C        -13.25100        2.94448        3.20047
C        -14.45956        3.24364        2.59295
C        -14.55470        4.40797        1.82306
C        -12.87586        1.81035        4.01616
C        -11.50849        1.90805        4.35052
C        -10.91310        3.20652        3.77951
C         -9.72652        2.93258        2.81956
C        -10.05849        2.09007        1.58631
C        -10.52854        4.21295        4.90419
C         -9.48087        3.75840        5.91500
C        -10.87989        0.89291        5.06500
C        -11.64021       -0.20404        5.49188
C        -13.01076       -0.27554        5.18872
C        -13.63236        0.72890        4.43945
C        -11.01381       -1.28439        6.25506
C        -10.87051       -1.21498        7.58660
C        -10.24636       -2.27364        8.35342
C         -9.68594       -2.14074        9.56363
S         -8.95526       -3.48440       10.39844
C         -8.43551       -2.46350       11.72861
O         -7.81220       -2.84004       12.70566
C         -8.85956       -1.07276       11.49238
C         -9.52543       -0.93562       10.33928
H          1.17990        7.39990       -7.83177
H         -1.00787        8.73682       -7.99886
H         -3.51525        8.56843       -7.44624
H         -7.81537        4.09886       -4.19352
H         -9.37568        7.19043       -6.12811
H        -11.58798        7.89467       -5.08373
H        -12.90573        8.52451       -3.15742
H        -13.88214        8.70778       -0.82575
H        -13.93998        7.35707        1.41931
H        -11.36123        5.60032        2.14533
H        -15.31689        2.58718        2.69295
H        -15.49573        4.63648        1.32759
H         -8.91915        2.42355        3.36014
H         -9.30947        3.88554        2.46885
H        -10.47527        1.11590        1.85797
H         -9.14910        1.90970        1.00351
H        -10.76909        2.59971        0.92845
H        -11.42548        4.50018        5.47055
H        -10.15922        5.13871        4.44210
H         -9.85558        2.94996        6.54848
H         -9.23300        4.58823        6.58612
H         -8.55557        3.43351        5.43276
H         -9.81788        0.94218        5.28557
H        -13.59897       -1.12581        5.52596
H        -14.68591        0.64902        4.19381
H        -10.65136       -2.12840        5.67510
H        -11.23815       -0.34257        8.12235
H        -10.23635       -3.25464        7.87724
H         -8.62273       -0.29267       12.19668
H         -9.89533        0.02217        9.99808
