114

C          4.57921        2.84064       -0.55926
C          4.30167        3.86189       -1.39716
C          4.77143        5.16937       -1.06564
N          5.19148        6.18802       -0.72088
C          3.66714        3.61439       -2.63874
N          3.16320        3.36464       -3.66563
C          5.95598        2.35762       -0.85579
C          6.01576        0.96984       -0.88943
C          7.16993        0.31839       -1.33824
C          8.26230        1.10383       -1.80288
C          8.16233        2.50583       -1.80551
C          7.02378        3.11857       -1.29968
C          9.08111        3.45500       -2.48125
O          9.40756        3.38389       -3.65104
O          9.29857        4.46958       -1.61071
C          9.86935        5.67356       -2.12766
C          9.47469        0.45307       -2.35324
O          9.47583       -0.61827       -2.93107
O         10.54269        1.25645       -2.13358
C         11.49205        1.28734       -3.20382
C          4.67450        0.43787       -0.50434
O          4.37413       -0.73725       -0.36920
C          3.76291        1.65574       -0.30438
C          2.51932        1.53728        0.20706
N          1.45968        2.34797        0.66310
C          0.88598        3.52129        0.22548
S          1.60401        4.71663       -0.74146
C          0.15328        5.28235       -1.33852
N          0.11024        6.12130       -2.49483
O         -0.97506        6.64562       -2.75177
O          1.15111        6.24669       -3.16143
C         -0.85143        4.96255       -0.46707
C         -0.34990        4.08443        0.56646
C         -1.02118        3.87648        1.80627
C         -2.25464        4.33706        2.06280
C         -2.80530        4.30436        3.38208
C         -3.81173        3.50695        3.74026
C         -4.11705        3.28486        5.12335
C         -4.61657        2.06589        5.30673
C         -4.78781        1.31189        4.06797
S         -4.65178        2.37262        2.69591
C         -4.96096       -0.01547        4.05750
C         -4.74319       -0.78278        5.25567
C         -5.27620       -1.99424        5.20697
C         -5.75791       -2.36537        3.90741
S         -5.55108       -1.03605        2.76276
C         -6.27461       -3.55994        3.58739
N         -6.40012       -4.75770        4.28279
C         -5.52770       -5.41534        5.11858
S         -4.01860       -4.77710        5.69850
C         -3.74717       -6.07448        6.71685
N         -2.65743       -6.02332        7.62895
O         -1.70207       -6.76929        7.39292
O         -2.78611       -5.26883        8.60217
C         -4.57697       -7.12690        6.46049
C         -5.60990       -6.74582        5.53077
C         -6.48607       -7.74828        5.01675
C         -7.79092       -7.74803        4.73279
C         -8.53636       -8.88166        4.19825
C         -8.43841      -10.19560        4.47832
C         -7.56286      -10.98610        5.34555
C         -6.24218      -11.27251        5.20843
C         -5.54384      -12.16751        6.07870
N         -4.99130      -12.87853        6.80943
C         -5.45686      -10.79398        4.11569
N         -4.78691      -10.38065        3.26764
C         -8.46743      -11.85611        6.12395
C         -9.65953      -12.01183        5.40656
C         -9.68986      -11.02777        4.29391
O        -10.58144      -10.87201        3.48897
C        -10.62662      -12.92691        5.78296
C        -10.40281      -13.67920        6.95542
C         -9.25525      -13.44514        7.75369
C         -8.29290      -12.51383        7.32312
C         -8.93477      -14.18051        9.01239
O         -9.23012      -15.33137        9.26597
O         -8.24722      -13.32878        9.81636
C         -7.90206      -13.78541       11.12514
C        -11.35753      -14.77013        7.22784
O        -11.73745      -15.53576        6.35623
O        -11.70723      -14.78272        8.52943
C        -12.05470      -16.09292        8.98674
H          7.21239       -0.76963       -1.37559
H          6.96529        4.19904       -1.37275
H          9.07706        6.42350       -2.22433
H         10.36934        5.53666       -3.08887
H         10.59306        6.03364       -1.39273
H         11.95451        2.28103       -3.19842
H         11.00235        1.15877       -4.17569
H         12.26647        0.53562       -3.05043
H          2.22180        0.50129        0.41321
H          0.78077        1.75664        1.15419
H         -1.83929        5.40003       -0.52138
H         -0.43772        3.44861        2.62173
H         -2.89671        4.76740        1.30064
H         -2.25823        4.86056        4.14129
H         -3.86892        3.96463        5.92504
H         -4.86142        1.66971        6.27962
H         -4.22368       -0.40972        6.12526
H         -5.31339       -2.61629        6.08059
H         -6.72312       -3.66738        2.59919
H         -7.13672       -5.33062        3.87712
H         -4.45557       -8.10937        6.90098
H         -5.94620       -8.65339        4.83870
H         -8.38493       -6.84887        4.89298
H         -9.41379       -8.55865        3.62550
H        -11.52013      -13.07079        5.17788
H         -7.40225      -12.33894        7.92106
H         -6.86034      -13.51395       11.32370
H         -8.01703      -14.86361       11.25997
H         -8.53937      -13.25027       11.83273
H        -11.33164      -16.83356        8.62234
H        -13.06548      -16.36254        8.67308
H        -12.00108      -16.08877       10.07877
