73

O         -0.85930        0.88291       -0.56113
N         -1.79139        1.70900        0.02883
C         -1.09311        2.74598        0.50732
C         -1.81337        3.76515        1.20107
N         -2.42676        4.58012        1.74830
C          0.29038        2.64471        0.22760
C          0.37436        1.44240       -0.44230
C          1.43991        0.65868       -0.93186
N          2.31039       -0.00982       -1.31779
C          1.37203        3.51610        0.62627
O          1.34336        4.18720        1.64857
O          2.44795        3.45499       -0.22409
N          3.64815        4.02963        0.26646
C          4.81609        3.66145       -0.35059
S          4.76838        2.74883       -1.82894
C          6.43674        2.57060       -1.85845
N          7.02920        1.78481       -2.88668
O          7.84487        2.35907       -3.61833
O          6.70774        0.59159       -2.93850
C          7.08341        3.26331       -0.87057
C          6.14335        3.89241        0.02514
C          6.54843        4.66396        1.17239
C          7.70268        4.47764        1.84184
C          8.09975        5.22847        3.02023
C          9.24253        5.06682        3.70726
C          9.58216        5.78019        4.91733
C         10.76132        5.42292        5.44826
C         11.46120        4.39967        4.69225
S         10.51217        3.95369        3.27305
C         12.64512        3.83287        4.99448
C         13.48282        4.10428        6.14849
C         14.58166        3.33584        6.22157
C         14.70133        2.39586        5.13163
S         13.38974        2.59254        3.99470
C         15.64615        1.44965        5.01014
C         15.65535        0.49013        3.92353
C         15.58510       -0.84796        4.05941
C         15.61041       -1.58009        5.37169
C         15.34371       -1.71562        2.84827
N         16.62275       -2.12393        2.32647
C         16.87072       -3.25099        1.59550
C         18.06143       -3.58621        1.09964
O         18.29513       -4.72980        0.35898
C         19.25100       -5.52647        0.93583
O         19.51507       -5.59421        2.12696
C         19.95911       -6.28200       -0.05714
C         20.20936       -5.97736       -1.41673
N         20.94536       -6.91837       -2.01610
O         21.18515       -7.87376       -1.03816
C         20.60413       -7.48039        0.12398
C         20.73157       -8.35438        1.23060
N         20.81656       -9.08817        2.12578
C         19.82569       -4.81224       -2.16372
N         19.51049       -3.85344       -2.72535
H          3.64473        4.18811        1.27846
H          8.16434        3.29934       -0.77942
H          5.87294        5.44825        1.50533
H          8.38423        3.69305        1.51787
H          7.38209        5.96503        3.37655
H          8.92794        6.52151        5.35572
H         11.15338        5.85372        6.35827
H         13.23577        4.84681        6.89353
H         15.30421        3.38911        7.02439
H         16.41629        1.33995        5.76881
H         15.59560        0.92187        2.92295
H         15.65592       -0.91062        6.23468
H         16.48272       -2.24003        5.41806
H         14.70685       -2.18873        5.48269
H         14.78040       -1.16845        2.08165
H         14.73611       -2.58709        3.11834
H         17.42162       -1.55064        2.58170
H         16.00682       -3.89661        1.45182
H         18.93985       -2.95900        1.17615
