117

C         -2.97459        0.11719       -1.10973
O         -3.71437       -0.68345       -0.58008
C         -3.21519        1.56595       -1.20025
C         -2.07653        2.22880       -1.68947
C         -2.15652        3.59821       -1.91590
C         -3.35628        4.27051       -1.62923
C         -4.46890        3.57630       -1.13134
C         -4.41084        2.20553       -0.90947
Br        -6.07453        4.51205       -0.78624
C         -0.99852        1.21587       -1.89240
C          0.32900        1.46752       -1.99757
C          0.86656        2.78654       -2.00128
N          1.30364        3.86161       -2.00645
C          1.30462        0.42915       -2.04348
N          2.10106       -0.41375       -2.08466
C         -1.64688       -0.11247       -1.77142
C         -1.27438       -1.28889       -2.30282
C         -2.02882       -2.54989       -2.29789
C         -1.82245       -3.50505       -1.29072
C         -2.45342       -4.74097       -1.40685
C         -3.28391       -5.02375       -2.51178
C         -3.50779       -4.07747       -3.49763
C         -2.88032       -2.83494       -3.38424
C         -3.76526       -6.38023       -2.41349
C         -3.24689       -6.97897       -1.24746
C         -2.38858       -5.96838       -0.46893
C         -0.93386       -6.46523       -0.26201
C         -0.13604       -6.73746       -1.53818
C         -3.05748       -5.57202        0.88105
C         -3.30243       -6.69071        1.89065
C         -3.51342       -8.31355       -0.95931
C         -4.32943       -9.04756       -1.83096
C         -4.87682       -8.41801       -2.96828
C         -4.58116       -7.09011       -3.27552
C         -4.61589      -10.45652       -1.52251
C         -4.76969      -11.37541       -2.48875
C         -5.01691      -12.81974       -2.33051
C         -4.56149      -13.73130       -3.31170
C         -4.80474      -15.14176       -3.21500
N         -4.31389      -15.98161       -4.15493
C         -3.59132      -15.46371       -5.18211
C         -3.37025      -14.11140       -5.29138
N         -3.85895      -13.24774       -4.36396
C         -2.62316      -13.52543       -6.36177
N         -2.01739      -13.06701       -7.24286
C         -3.07082      -16.40955       -6.12269
N         -2.62930      -17.15276       -6.89600
C         -5.53527      -15.69241       -2.15160
C         -6.00076      -14.82266       -1.13030
C         -5.74189      -13.34545       -1.22241
N         -6.27658      -12.67154       -0.18903
S         -6.99191      -13.77654        0.81127
N         -6.67843      -15.17037       -0.02307
C         -5.79817      -17.12872       -2.02527
C         -6.91350      -17.75702       -2.42071
C         -8.09639      -17.19626       -3.02717
C         -9.10711      -18.07198       -3.13784
C         -8.79365      -19.40088       -2.64006
S         -7.08763      -19.47948       -2.18694
C         -9.65948      -20.41349       -2.44359
C        -11.10414      -20.37201       -2.60209
C        -11.73862      -21.36201       -1.95200
C        -10.83378      -22.24326       -1.24767
S         -9.19301      -21.98208       -1.79491
C        -11.18234      -23.07668       -0.25346
C        -10.25955      -23.85026        0.56477
C         -9.29729      -23.34651        1.35957
C         -8.17711      -24.03077        2.03957
C         -8.19094      -25.26719        2.59305
C         -7.09858      -25.78867        3.34289
N         -6.21074      -26.21301        3.95806
C         -9.33745      -26.11143        2.53784
N        -10.27310      -26.79597        2.49138
C         -7.08705      -23.01525        2.16912
C         -7.62266      -21.75631        1.88630
C         -9.04160      -21.87113        1.52245
O         -9.82386      -20.94723        1.43802
C         -6.89129      -20.57425        1.90775
C         -5.52175      -20.65712        2.24343
C         -4.96948      -21.91949        2.51249
C         -5.73222      -23.11500        2.46501
S         -3.28791      -21.79292        2.89311
C         -3.30897      -20.11446        2.72059
C         -4.53352      -19.61970        2.36030
Br        -1.80129      -19.03743        2.99653
H         -1.33705        4.18106       -2.32423
H         -3.41771        5.34357       -1.80671
H         -5.26466        1.64255       -0.54557
H         -0.36366       -1.38386       -2.88770
H         -1.16681       -3.29608       -0.45179
H         -4.13938       -4.29606       -4.35203
H         -3.04261       -2.09723       -4.16652
H         -0.93630       -7.39044        0.32693
H         -0.37464       -5.72693        0.32741
H         -0.64545       -7.44559       -2.19787
H          0.83776       -7.16820       -1.28094
H          0.05473       -5.81655       -2.09749
H         -4.02556       -5.08830        0.69037
H         -2.43609       -4.81278        1.37463
H         -4.09390       -7.36772        1.55650
H         -3.64190       -6.26270        2.84027
H         -2.40039       -7.27328        2.09387
H         -3.08780       -8.78311       -0.07769
H         -5.53940       -8.96187       -3.63710
H         -4.98533       -6.63798       -4.17419
H         -4.65151      -10.71547       -0.46826
H         -4.65253      -11.06599       -3.52681
H         -4.99195      -17.69048       -1.55842
H         -8.16960      -16.16514       -3.34086
H        -10.07237      -17.81321       -3.54974
H        -11.62275      -19.57951       -3.12036
H        -12.81438      -21.45456       -1.88847
H        -12.23114      -23.18537        0.01544
H        -10.37970      -24.92100        0.42371
H         -7.36195      -19.62645        1.65994
H         -5.23333      -24.05936        2.65147
H         -4.73718      -18.56843        2.19540
