98

C         -1.61562        1.67837       -1.99462
O         -1.38717        1.43027       -3.15980
C         -0.60728        2.11151       -1.01959
C         -1.20582        2.39602        0.21635
C         -0.38244        2.67354        1.30096
C          1.00814        2.68890        1.11927
C          1.57082        2.42085       -0.13639
C          0.76388        2.12912       -1.22998
Br         3.45077        2.39410       -0.32488
C         -2.68145        2.21629        0.08904
C         -3.60695        2.69801        0.95766
C         -3.25772        3.52181        2.06828
N         -2.96483        4.20840        2.95787
C         -5.00742        2.47898        0.81932
N         -6.14989        2.28414        0.75321
C         -2.90872        1.57187       -1.23323
C         -3.98557        0.91136       -1.69003
C         -4.20394        0.33797       -3.01271
C         -5.31466       -0.31667       -3.39392
C         -5.62866       -0.70003       -4.75204
C         -6.92732       -0.99832       -4.93125
C         -7.71782       -0.86514       -3.71555
S         -6.63945       -0.71434       -2.33324
C         -9.05049       -0.69815       -3.61679
C        -10.00687       -0.63806       -4.70653
C        -11.13242        0.01754       -4.37902
C        -11.12183        0.52036       -3.01636
S         -9.85442       -0.24750       -2.10587
C        -11.89328        1.53014       -2.58692
C        -11.74197        2.20232       -1.33118
S        -12.58057        1.64984        0.07410
C        -12.10303        3.00371        1.05881
C        -11.34341        3.87457        0.29206
C        -11.07240        3.37726       -1.03999
C        -10.27664        4.06069       -1.97595
C         -9.76060        5.29121       -1.48750
C         -8.84931        6.13256       -2.35461
F         -8.60293        5.59293       -3.58022
F         -9.36159        7.37330       -2.59041
F         -7.62899        6.33747       -1.78372
C        -10.07462        5.79463       -0.18211
C        -10.88651        5.12162        0.74817
C        -12.55917        3.04796        2.42154
C        -11.83353        3.63653        3.38634
C        -12.23487        3.80412        4.77294
C        -11.52461        4.46035        5.70892
C        -11.89188        4.57023        7.10195
C        -10.98055        5.20411        7.85832
C         -9.82905        5.69184        7.11513
S        -10.01572        5.28912        5.40909
C         -8.76614        6.36746        7.59748
C         -8.48742        6.69325        8.98482
C         -7.40832        7.47370        9.15684
C         -6.76205        7.85094        7.91811
S         -7.48713        7.02323        6.56658
C         -5.76828        8.74860        7.81084
C         -5.23425        9.24837        6.55717
C         -4.00172        9.14850        6.03966
C         -3.84316        9.53658        4.59325
O         -4.57997       10.22369        3.91612
C         -2.61415        8.87622        4.12906
C         -1.99699        8.19792        5.19403
C         -2.73540        8.53358        6.45263
C         -2.17667        8.51520        7.69060
C         -0.89419        7.99109        7.94469
N          0.16267        7.56070        8.16292
C         -2.77487        9.14363        8.81837
N         -3.20183        9.66986        9.76408
C         -0.88453        7.41251        4.91627
C         -0.37840        7.37766        3.60768
C         -0.99160        8.10881        2.58031
C         -2.13300        8.86359        2.82756
Br        -0.26301        8.04654        0.83671
H         -0.76288        2.83873        2.30376
H          1.65017        2.88728        1.97610
H          1.17806        1.88098       -2.20240
H         -4.83605        0.79508       -1.02611
H         -3.45231        0.53975       -3.77227
H         -4.89912       -0.66997       -5.54928
H         -7.35612       -1.23433       -5.89489
H         -9.80632       -1.02689       -5.69519
H        -11.93493        0.22207       -5.07379
H        -12.60547        1.97845       -3.27505
H        -10.05240        3.69387       -2.97101
H         -9.66016        6.75978        0.12016
H        -11.11236        5.57279        1.70521
H        -13.51344        2.58598        2.65905
H        -10.84749        4.02139        3.14047
H        -13.18210        3.34893        5.05272
H        -12.81466        4.15916        7.48862
H        -11.10569        5.36048        8.92050
H         -9.08807        6.33069        9.80753
H         -7.05846        7.81424       10.12279
H         -5.44157        9.25770        8.71164
H         -6.01136        9.69170        5.92583
H         -0.38686        6.80944        5.66843
H          0.50145        6.77177        3.39849
H         -2.63997        9.41583        2.04249
