115

C         -6.82352       -2.09207        4.59722
O         -6.46919       -3.24464        4.72007
C         -7.83384       -1.46720        5.44501
C         -7.77179       -0.07092        5.33531
C         -8.66553        0.67469        6.09300
C         -9.58877        0.00490        6.92154
C         -9.63092       -1.39583        6.97633
C         -8.74308       -2.15489        6.23139
Br       -10.90699       -2.26716        8.06322
C         -6.70228        0.26704        4.34549
C         -6.07265        1.45861        4.22232
C         -6.41988        2.59639        5.01224
N         -6.70335        3.51208        5.65368
C         -4.96467        1.65191        3.34595
N         -4.06908        1.81580        2.62561
C         -6.33093       -1.01029        3.67539
C         -5.82611       -1.21882        2.44321
C         -5.57690       -2.50915        1.76081
C         -6.40684       -3.62359        1.94441
C         -6.08820       -4.84166        1.36595
C         -4.97493       -4.94051        0.51929
C         -4.18273       -3.83470        0.25210
C         -4.49282       -2.61661        0.86928
C         -4.83724       -6.30555        0.08156
C         -5.83968       -7.10061        0.67851
C         -6.76771       -6.21288        1.54323
C         -6.79861       -6.70264        3.01617
C         -5.45593       -6.71518        3.74456
C         -8.19595       -6.20137        0.91871
C         -9.26485       -5.39931        1.66445
C         -5.86971       -8.47905        0.46798
C         -4.90326       -9.05865       -0.37462
C         -3.92874       -8.23342       -0.98032
C         -3.89229       -6.85846       -0.75883
C         -4.87758      -10.52109       -0.57509
C         -4.41938      -11.08738       -1.70149
N         -4.34118      -12.42495       -2.02274
C         -3.90675      -12.95776       -3.20617
S         -2.70389      -12.17981       -4.18701
C         -2.75049      -13.40725       -5.33559
N         -1.89313      -13.33985       -6.47151
O         -1.19317      -14.33705       -6.68943
O         -1.94878      -12.31788       -7.16643
C         -3.62904      -14.41370       -5.03609
C         -4.31848      -14.14691       -3.80838
C         -5.34181      -14.99769       -3.27210
C         -6.17672      -15.75152       -4.00815
C         -7.19658      -16.61004       -3.44606
C         -8.21914      -16.24080       -2.66087
C         -9.20288      -17.16147       -2.14931
C        -10.14438      -16.57507       -1.39967
C         -9.97936      -15.13722       -1.25681
S         -8.55705      -14.60607       -2.14443
C        -10.77514      -14.32184       -0.53962
C        -11.95619      -14.73518        0.19172
C        -12.51552      -13.76393        0.92284
C        -11.82144      -12.50027        0.83388
S        -10.51246      -12.59060       -0.32725
C        -12.03751      -11.39318        1.56222
C        -13.03526      -11.26311        2.61025
C        -12.99637      -10.42786        3.66218
C        -13.91778      -10.33805        4.82161
C        -15.24186      -10.63623        4.84616
C        -16.06815      -10.41832        5.98570
N        -16.74707      -10.24235        6.90890
C        -15.94083      -11.13238        3.70548
N        -16.50516      -11.54807        2.78048
C        -13.15524       -9.66329        5.91799
C        -11.97692       -9.14375        5.37923
C        -11.82644       -9.53475        3.97242
O        -10.91285       -9.18611        3.25464
C        -11.06143       -8.37934        6.09443
C        -11.34679       -8.11364        7.45092
C        -12.49711       -8.68184        8.01925
C        -13.40272       -9.48139        7.27484
S        -12.63576       -8.25985        9.68991
C        -11.24621       -7.30383        9.62981
C        -10.63163       -7.31409        8.40671
Br       -10.61040       -6.32409       11.09404
H         -8.69644        1.75771        6.07484
H        -10.28347        0.59199        7.52242
H         -8.75410       -3.24040        6.23909
H         -5.56644       -0.37466        1.80810
H         -7.27839       -3.56211        2.57805
H         -3.31800       -3.91222       -0.39859
H         -3.85894       -1.75683        0.66008
H         -7.21111       -7.72026        3.05194
H         -7.47598       -6.07689        3.60893
H         -4.72563       -7.35935        3.24733
H         -5.59269       -7.09587        4.76272
H         -5.03543       -5.70889        3.82705
H         -8.56817       -7.23135        0.84013
H         -8.14513       -5.81906       -0.10975
H         -9.50717       -5.84866        2.63184
H        -10.18704       -5.36562        1.07589
H         -8.97908       -4.36136        1.82963
H         -6.62779       -9.09123        0.94845
H         -3.16515       -8.65516       -1.62933
H         -3.12906       -6.25041       -1.23055
H         -5.24776      -11.13070        0.24327
H         -4.08822      -10.44787       -2.51566
H         -4.79876      -13.02867       -1.34498
H         -3.77889      -15.28446       -5.66337
H         -5.45666      -15.01035       -2.19045
H         -6.11502      -15.76742       -5.09402
H         -7.10911      -17.65263       -3.74805
H         -9.17266      -18.22326       -2.35227
H        -10.94576      -17.13011       -0.93499
H        -12.35463      -15.73823        0.15747
H        -13.39638      -13.92332        1.52671
H        -11.39537      -10.53131        1.38344
H        -13.85362      -11.96848        2.51621
H        -10.16762       -7.99020        5.61374
H        -14.25858       -9.90662        7.78668
H         -9.72347       -6.76732        8.18210
