88

C         -3.49342       -0.65931       -2.30821
O         -2.73063       -1.52367       -1.93589
C         -3.23877        0.78897       -2.23287
C         -4.27963        1.50276       -2.84779
C         -4.31190        2.88385       -2.70952
C         -3.27837        3.51951       -2.00373
C         -2.22474        2.77868       -1.44543
C         -2.19314        1.39284       -1.55253
Br        -0.86116        3.67362       -0.49029
C         -5.20314        0.52295       -3.48612
C         -6.03980        0.77559       -4.52024
C         -6.19460        2.07464       -5.08366
N         -6.31987        3.13780       -5.53266
C         -6.78160       -0.25563       -5.16801
N         -7.39336       -1.09644       -5.68025
C         -4.87061       -0.79549       -2.89833
C         -5.68447       -1.84549       -2.69753
C         -5.34132       -2.98590       -1.91375
S         -4.62418       -4.36554       -2.66271
C         -4.65912       -5.22920       -1.15945
N         -4.24322       -6.48689       -0.84177
C         -4.53967       -6.77114        0.41547
S         -5.33313       -5.47866        1.27535
C         -5.23251       -4.49974       -0.16365
C         -5.59895       -3.18310       -0.56718
C         -4.29905       -8.09036        1.03955
C         -4.41574       -9.29862        0.30735
C         -4.11631      -10.58907        0.88412
N         -4.21507      -11.70695        0.12532
C         -4.57496      -11.58699       -1.18086
C         -4.90232      -10.36803       -1.72376
N         -4.84467       -9.23961       -0.97411
C         -5.36279      -10.20779       -3.07073
N         -5.76972      -10.11360       -4.15914
C         -4.61789      -12.79976       -1.94142
N         -4.67433      -13.77227       -2.57467
C         -3.73854      -10.73064        2.23397
C         -3.62960       -9.55062        3.01251
C         -3.89485       -8.20009        2.40151
N         -3.69512       -7.20603        3.28529
S         -3.26305       -7.88703        4.72701
N         -3.30233       -9.48560        4.31498
C         -3.46832      -12.01807        2.90690
C         -2.31706      -12.70254        2.83866
C         -2.07960      -14.00314        3.42882
C         -1.01147      -14.63273        2.90920
C         -0.36034      -13.86085        1.86469
S         -0.91785      -12.18211        1.94670
C          0.38161      -14.33178        0.84542
C          0.72216      -15.71056        0.54565
C          1.00168      -15.91267       -0.75566
C          0.88851      -14.70540       -1.55496
S          0.86681      -13.31734       -0.50099
C          0.69083      -14.67480       -2.88557
C          0.34483      -13.52548       -3.71026
C          0.77838      -12.25339       -3.53308
C          0.12452      -11.43782       -4.51601
C          0.15060      -10.10565       -4.67349
C         -0.67043       -9.58396       -5.73793
C         -0.89474       -8.31235       -6.10537
C         -1.85858       -8.27911       -7.21486
C         -2.16361       -9.55142       -7.56766
C         -1.47125      -10.42321       -6.64151
C         -1.48478      -11.76259       -6.48605
C         -0.69011      -12.29066       -5.38531
C         -0.53253      -13.53868       -4.90829
C         -2.38381       -7.10227       -7.86563
C         -2.51497       -5.91996       -7.24774
H         -5.12107        3.49611       -3.09553
H         -3.30872        4.60168       -1.88131
H         -1.40904        0.79567       -1.09666
H         -6.71526       -1.82949       -3.04001
H         -6.05143       -2.44638        0.08472
H         -4.30362      -12.41627        3.47568
H         -2.73139      -14.43506        4.17543
H         -0.70785      -15.63266        3.18530
H          0.69209      -16.50177        1.28109
H          1.21782      -16.87992       -1.18774
H          0.65810      -15.62176       -3.42117
H          1.43962      -11.86268       -2.77926
H          0.71472       -9.44200       -4.03263
H         -0.46176       -7.43365       -5.65491
H         -2.83736       -9.87280       -8.34482
H         -2.07184      -12.42443       -7.10889
H         -0.99772      -14.43309       -5.29309
H         -2.70595       -7.20156       -8.89897
H         -2.24140       -5.78160       -6.20519
H         -2.92888       -5.06123       -7.76425
