106

C         -6.86379       -2.80273       -2.61311
O         -6.23484       -3.78966       -2.92711
C         -6.87976       -1.54621       -3.36876
C         -7.91194       -0.70834       -2.91166
C         -8.00935        0.56592       -3.45319
C         -7.08015        0.96498       -4.43062
C         -6.06090        0.09878       -4.85676
C         -5.95141       -1.18087       -4.33063
Br        -4.79404        0.69463       -6.12631
C         -8.64845       -1.42560       -1.82836
C         -9.90135       -1.16241       -1.38464
C        -10.67130       -0.06515       -1.87106
N        -11.28468        0.84176       -2.25313
C        -10.55783       -1.98922       -0.42783
N        -11.08742       -2.64461        0.37057
C         -7.79214       -2.57419       -1.45473
C         -7.63049       -3.15013       -0.24718
C         -6.55574       -4.04169        0.03519
S         -6.77731       -5.72651       -0.12455
C         -5.15612       -6.08703        0.33266
C         -4.45855       -4.92386        0.63377
C         -5.27414       -3.74042        0.47434
C         -4.73943       -2.36292        0.76404
C         -3.20796       -2.32290        0.79208
C         -2.59803       -3.47242        1.60472
N         -2.96874       -3.40769        3.02632
C         -2.99387       -4.82919        0.99448
C         -4.74024       -7.45229        0.29506
C         -3.90896       -7.97558        1.21061
C         -3.36084       -9.31635        1.20722
C         -4.00436      -10.47536        1.01823
C         -3.35402      -11.76523        0.96585
C         -4.11221      -12.70328        0.37651
C         -5.38502      -12.17817       -0.09414
S         -5.70715      -10.64240        0.69443
C         -6.10713      -12.65266       -1.12440
C         -5.78254      -13.81793       -1.92302
C         -6.36014      -13.80668       -3.13257
C         -7.18338      -12.63732       -3.36108
S         -7.44546      -11.77539       -1.86689
C         -7.60974      -12.25656       -4.57391
C         -8.36133      -11.07268       -4.81710
S        -10.06372      -11.15583       -4.78345
C        -10.26818       -9.49764       -5.19706
C         -9.03228       -8.90660       -5.43622
C         -7.92889       -9.80226       -5.16242
C         -6.49086       -9.37816       -5.30833
C         -6.32681       -7.86520       -5.50032
C         -7.37483       -7.25328       -6.44430
N         -7.24613       -7.76934       -7.81687
C         -8.79849       -7.48214       -5.88484
C        -11.57428       -8.92025       -5.31415
C        -12.62239       -9.34812       -4.58896
C        -13.96202       -8.81377       -4.68141
C        -14.35229       -7.54942       -4.47373
C        -15.72942       -7.14359       -4.89958
O        -16.69259       -7.85320       -5.09687
C        -15.65334       -5.68843       -5.10990
C        -14.37093       -5.20695       -4.77447
C        -13.61604       -6.32518       -4.14199
C        -12.64525       -6.18888       -3.20520
C        -11.96459       -4.95553       -2.97633
N        -11.39996       -3.95194       -2.84583
C        -12.33335       -7.23783       -2.28852
N        -12.13039       -8.05408       -1.48923
C        -14.07789       -3.87423       -5.02020
C        -15.08831       -3.04145       -5.52565
C        -16.37179       -3.54296       -5.79575
C        -16.66713       -4.88781       -5.60765
Br       -17.71497       -2.37080       -6.42355
H         -8.75483        1.28749       -3.13425
H         -7.14824        1.96897       -4.84714
H         -5.15815       -1.86319       -4.62022
H         -8.23027       -2.85699        0.60670
H         -5.13267       -2.03648        1.73488
H         -5.09549       -1.64527        0.01640
H         -2.87058       -1.35689        1.18575
H         -2.83001       -2.38840       -0.23745
H         -1.50533       -3.39290        1.56296
H         -3.95605       -3.64466        3.13761
H         -2.85173       -2.46053        3.37983
H         -2.69675       -5.60587        1.70013
H         -2.41212       -4.99844        0.07899
H         -5.13879       -8.06625       -0.50984
H         -3.53793       -7.37455        2.03274
H         -2.28767       -9.34138        1.39320
H         -2.34430      -11.92863        1.31553
H         -3.77603      -13.71249        0.19211
H         -5.09899      -14.58781       -1.59602
H         -6.19804      -14.56451       -3.88574
H         -7.35567      -12.85170       -5.44547
H         -6.05891       -9.90234       -6.16977
H         -5.91674       -9.68443       -4.42556
H         -5.31282       -7.65159       -5.86132
H         -6.41316       -7.37039       -4.52326
H         -7.20297       -6.17161       -6.50183
H         -7.49255       -8.76018       -7.83271
H         -6.27333       -7.71313       -8.11591
H         -9.53924       -7.19138       -6.63993
H         -8.94925       -6.82239       -5.02028
H        -11.69288       -8.09870       -6.01457
H        -12.52731      -10.17816       -3.88934
H        -14.70677       -9.55540       -4.97929
H        -13.10016       -3.44274       -4.83635
H        -14.86765       -1.98900       -5.69794
H        -17.64388       -5.30430       -5.83333
