112

C          1.28415       -2.78595        1.89435
O          1.32730       -3.91095        1.44503
C          2.16202       -2.27156        2.95571
C          1.97981       -0.88847        3.12163
C          2.67842       -0.24960        4.13883
C          3.55617       -0.99642        4.94126
C          3.72379       -2.37352        4.73626
C          3.02070       -3.03339        3.73525
Br         4.90286       -3.34442        5.84960
C          0.99326       -0.41982        2.10359
C          0.81750        0.85865        1.68876
C          1.50305        1.95929        2.26694
N          2.06037        2.86490        2.74511
C         -0.02472        1.19752        0.58695
N         -0.70356        1.47709       -0.30672
C          0.39023       -1.63662        1.51252
C         -0.80528       -1.78737        0.91503
C         -1.38116       -3.06427        0.47767
C         -2.20540       -3.79479        1.34969
C         -2.68894       -5.03393        0.94482
C         -2.36714       -5.52621       -0.33952
C         -1.59214       -4.78950       -1.22333
C         -1.09879       -3.54895       -0.81059
C         -2.94909       -6.83518       -0.50932
C         -3.67037       -7.17987        0.64667
C         -3.58354       -6.05032        1.70364
C         -2.86609       -6.62801        2.95728
C         -2.64509       -5.71630        4.16025
C         -4.98327       -5.42313        1.96255
C         -6.07657       -6.35433        2.48726
C         -4.29721       -8.42129        0.74250
C         -4.20815       -9.32612       -0.32462
C         -3.48983       -8.95893       -1.47747
C         -2.85364       -7.71645       -1.57406
C         -4.93832      -10.60246       -0.23871
C         -4.51259      -11.75984       -0.77268
C         -5.29304      -12.98108       -0.71644
C         -4.89929      -14.15430       -0.19828
C         -5.74053      -15.32559       -0.08487
C         -5.26883      -16.23850        0.78077
C         -4.01932      -15.83695        1.41507
S         -3.35764      -14.43543        0.56296
C         -3.47274      -16.34284        2.53956
C         -4.00606      -17.41716        3.35979
C         -3.36597      -17.57346        4.52874
C         -2.26074      -16.65955        4.71309
S         -2.01755      -15.67247        3.30328
C         -1.51833      -16.57131        5.82639
N         -0.40413      -15.78783        6.09484
C          0.31216      -15.75623        7.26122
S         -0.44622      -16.05263        8.79300
C          1.01533      -15.97525        9.62732
N          1.06550      -16.23645       11.04053
O          2.16703      -16.08226       11.58660
O          0.03077      -16.60659       11.60993
C          2.07374      -15.64625        8.81590
C          1.67209      -15.49467        7.44365
C          2.58957      -15.17675        6.37790
C          3.88869      -15.53022        6.36126
C          4.79536      -15.22209        5.27542
C          5.89183      -15.91145        4.92517
C          6.85777      -15.29280        3.95027
O          6.68056      -14.32932        3.23524
C          8.10897      -16.06313        4.08246
C          7.94918      -17.08579        5.03141
C          6.50382      -17.17329        5.36969
C          5.86678      -18.34283        5.63612
C          6.56760      -19.57617        5.80385
N          7.14251      -20.57716        5.92670
C          4.45425      -18.47395        5.59390
N          3.30149      -18.61763        5.55030
C          9.05585      -17.82534        5.42317
C         10.26920      -17.62232        4.75436
C         10.37268      -16.66525        3.73205
C          9.29758      -15.84165        3.40789
Br        11.99073      -16.51578        2.76642
H          2.57067        0.80743        4.35839
H          4.10603       -0.49162        5.73487
H          3.11710       -4.10230        3.57045
H         -1.48519       -0.95608        0.75643
H         -2.44446       -3.39497        2.32903
H         -1.35343       -5.16499       -2.21172
H         -0.48183       -2.97362       -1.49481
H         -1.88088       -7.01193        2.65691
H         -3.42091       -7.50039        3.32553
H         -2.14318       -4.78268        3.90732
H         -1.99395       -6.22660        4.88100
H         -3.58284       -5.48725        4.67354
H         -5.36383       -4.98213        1.02977
H         -4.88801       -4.58844        2.66778
H         -6.36841       -7.10123        1.74361
H         -6.98677       -5.78337        2.70021
H         -5.77557       -6.86520        3.40543
H         -4.84518       -8.69133        1.63931
H         -3.42382       -9.63905       -2.32279
H         -2.29496       -7.46100       -2.46744
H         -5.87357      -10.56466        0.31654
H         -3.55061      -11.82221       -1.27776
H         -6.30572      -12.88817       -1.10343
H         -6.67931      -15.42004       -0.61434
H         -5.79506      -17.15241        1.01988
H         -4.85231      -18.02453        3.06984
H         -3.63315      -18.31441        5.27091
H         -1.78184      -17.22205        6.65708
H         -0.01794      -15.36638        5.25068
H          3.08679      -15.53201        9.18472
H          2.18119      -14.65133        5.51664
H          4.30686      -16.08778        7.19606
H          4.57749      -14.29222        4.74427
H          9.01296      -18.57304        6.21005
H         11.12774      -18.23727        5.02043
H          9.36916      -15.07133        2.64682
