116

C          7.29329        1.28292        2.02548
C          8.21988        0.23470        1.37386
C          7.77064       -0.73107        0.45748
C          8.64696       -1.68349       -0.07351
C          9.98790       -1.69248        0.29989
C         10.46175       -0.73973        1.19467
C          9.59057        0.21728        1.71934
C          7.24311        1.18072        3.56948
C          7.00737        2.32544        4.35786
C          7.00006        2.25564        5.75365
C          7.22119        1.04038        6.39320
C          7.43207       -0.10934        5.63821
C          7.42949       -0.04436        4.24126
C          5.87689        1.39216        1.42191
C          5.80463        2.56983        0.77033
C          7.08683        3.23373        0.79954
C          7.53756        4.29789        0.10386
C          6.79004        4.94008       -0.92136
N          6.20341        5.45345       -1.78009
C          8.84758        4.79830        0.35645
N          9.90604        5.22103        0.57253
O          7.91869        2.56872        1.69797
C          4.60162        3.19072        0.34247
N          3.62477        3.72768        0.02846
N          4.89419        0.44023        1.69304
C          3.78398        0.09649        0.96595
S          3.72092        0.22467       -0.76526
C          2.13429       -0.33499       -0.82232
N          1.48025       -0.47256       -2.08375
O          1.01003       -1.58968       -2.33487
O          1.41995        0.52708       -2.80861
C          1.63724       -0.69657        0.40217
C          2.59887       -0.46357        1.44536
C          2.36195       -0.76766        2.83275
C          1.15464       -0.73886        3.42089
C          0.91011       -1.11007        4.80459
C         -0.28900       -1.11052        5.40986
C         -0.53576       -1.57667        6.75580
C         -1.83994       -1.71206        7.04466
C         -2.71565       -1.38161        5.93272
S         -1.78071       -0.61614        4.65253
C         -4.01310       -1.71458        5.79944
C         -4.81873       -2.46384        6.74627
C         -5.94870       -2.95970        6.21681
C         -6.11787       -2.61874        4.82354
S         -4.93330       -1.44245        4.31988
C         -6.99455       -3.12459        3.94539
N         -7.98942       -4.06176        4.12821
C         -8.84784       -4.55692        3.18679
S         -8.43784       -4.66862        1.50655
C         -9.92638       -5.35350        1.12406
N        -10.20020       -5.72810       -0.22258
O        -10.49472       -6.91526       -0.40993
O        -10.17213       -4.83373       -1.07592
C        -10.75726       -5.51756        2.20096
C        -10.13920       -5.03859        3.40056
C        -10.77418       -5.01803        4.68692
C        -12.09623       -4.89580        4.89717
C        -12.69845       -4.86084        6.21408
C        -12.43684       -4.00698        7.21630
C        -13.25615       -4.35137        8.36033
C        -13.33908       -3.79551        9.58813
C        -12.55161       -2.69014       10.01304
N        -11.90216       -1.79446       10.36834
C        -14.26268       -4.31923       10.53498
N        -15.01954       -4.72916       11.31895
O        -14.06129       -5.45213        8.02848
C        -13.76330       -5.85767        6.64885
C        -13.22645       -7.30771        6.79864
C        -14.08126       -8.42634        6.82621
C        -13.57807       -9.72690        6.98261
C        -12.21282       -9.94300        7.14470
C        -11.34920       -8.85783        7.16942
C        -11.85194       -7.56211        7.01514
C        -15.04933       -5.66050        5.80547
C        -15.98615       -4.65804        6.14255
C        -17.15054       -4.45911        5.39395
C        -17.41271       -5.26104        4.29028
C        -16.48593       -6.22598        3.90611
C        -15.30411       -6.40519        4.63727
C        -11.49082       -2.95332        7.14559
N        -10.68222       -2.12562        7.07402
H          6.73451       -0.77156        0.13436
H          8.27909       -2.42321       -0.78113
H         10.66346       -2.43954       -0.10937
H         11.50905       -0.74087        1.48755
H          9.98826        0.95040        2.42161
H          6.84730        3.29746        3.89582
H          6.83650        3.15595        6.34184
H          7.23685        0.99181        7.47939
H          7.61735       -1.05733        6.13836
H          7.61498       -0.96488        3.68961
H          5.02561       -0.01593        2.59666
H          0.64618       -1.11556        0.54021
H          3.22210       -1.04945        3.43413
H          0.28936       -0.43686        2.83362
H          1.77335       -1.46243        5.36515
H          0.26076       -1.83060        7.44136
H         -2.20252       -2.08553        7.99160
H         -4.51609       -2.64079        7.76843
H         -6.64696       -3.57373        6.76532
H         -6.94693       -2.75773        2.92072
H         -8.15823       -4.26491        5.10774
H        -11.74996       -5.94602        2.12934
H        -10.11480       -5.08719        5.54908
H        -12.78733       -4.82341        4.05920
H        -15.15935       -8.30951        6.72825
H        -14.25713      -10.57675        6.98670
H        -11.82522      -10.95140        7.26914
H        -10.28309       -9.01467        7.31778
H        -11.13104       -6.75328        7.08091
H        -15.82846       -4.00880        7.00041
H        -17.85578       -3.68110        5.67885
H        -18.33368       -5.12831        3.72693
H        -16.68708       -6.84355        3.03334
H        -14.59380       -7.15095        4.28472
