88

C        -10.59656      -20.60014        1.93306
S         -9.66185      -19.24298        1.50668
C         -8.16904      -20.13608        1.48324
C         -8.41414      -21.47704        1.77189
C         -9.82516      -21.72799        2.05619
C        -10.33881      -22.98448        2.41831
C        -11.71726      -23.20586        2.70611
N        -12.83951      -23.38241        2.94152
C         -9.36411      -24.00069        2.48377
C         -7.98458      -23.77965        2.19290
C         -7.45324      -22.51956        1.82245
C         -6.07144      -22.35436        1.50548
N         -4.95339      -22.19000        1.24518
C         -6.94308      -19.43018        1.27302
C         -6.81471      -18.38836        0.43563
C         -5.56954      -17.71599        0.30801
S         -5.54030      -16.02215       -0.07551
C         -3.81224      -15.87562        0.05328
C         -3.30956      -17.13259        0.27542
C         -4.27500      -18.14233        0.41284
N         -3.63578      -19.34876        0.61363
C         -2.25105      -19.09601        0.58469
S         -1.05605      -20.22366        0.73087
N         -2.06183      -17.71152        0.39421
C         -3.11123      -14.62127       -0.15485
C         -3.46097      -13.30476        0.10185
C         -2.45227      -12.35876       -0.35345
C         -2.58296      -10.96523       -0.23824
C         -3.79511      -10.57057        0.36056
C         -4.77894      -11.48856        0.82330
C         -4.65055      -12.89125        0.72836
C         -1.34133      -12.95848       -0.91866
S         -1.54127      -14.67116       -0.87328
C         -0.13700      -12.36765       -1.41761
C          0.62393      -12.92650       -2.37373
C          1.87032      -12.37036       -2.86555
C          2.98755      -12.11474       -2.13561
O          4.17095      -11.65895       -2.73267
C          4.13319      -11.49192       -4.06792
C          2.97286      -11.73775       -4.82116
C          3.13861      -11.47077       -6.15587
S          4.75251      -10.96028       -6.47967
C          5.20044      -11.08497       -4.82299
O          1.83046      -12.18574       -4.25791
C          3.11623      -12.29173       -0.69529
C          4.25877      -12.13332       -0.00390
C          4.35010      -12.30901        1.41122
S          5.50850      -11.32717        2.25330
C          5.13691      -11.98414        3.80086
C          4.14461      -12.93549        3.68043
C          3.71402      -13.14226        2.31621
C          2.76187      -14.10712        1.95648
C          2.20658      -14.80422        3.05639
C          1.08656      -15.77687        2.76727
C          2.62556      -14.57227        4.41389
O          1.98846      -15.35987        5.35147
C          1.85402      -14.77875        6.64309
C          3.63977      -13.65222        4.77435
C          5.88803      -11.54254        4.92634
C          5.47537      -10.51820        5.68298
H        -11.66313      -20.47741        2.07405
H         -9.67279      -25.00952        2.76651
H         -7.31108      -24.63632        2.26325
H         -6.08432      -19.75084        1.85552
H         -7.65729      -18.00388       -0.13340
H         -4.06194      -20.26471        0.71012
H         -1.17584      -17.23827        0.30104
H         -1.85604      -10.23722       -0.57474
H         -3.99186       -9.50440        0.47852
H         -5.68482      -11.08327        1.27608
H         -5.42319      -13.53749        1.11962
H          0.16368      -11.41444       -0.99088
H          0.32332      -13.84477       -2.87327
H          2.41456      -11.55142       -6.95340
H          6.20395      -10.85632       -4.49404
H          2.20756      -12.55288       -0.16848
H          5.16397      -11.82421       -0.51989
H          2.45269      -14.33172        0.94533
H          0.97796      -15.95148        1.69070
H          0.13932      -15.36757        3.13372
H          1.27788      -16.74621        3.23591
H          1.15020      -15.39302        7.21202
H          1.44281      -13.76507        6.58282
H          2.80802      -14.78693        7.17885
H          3.99548      -13.51457        5.78459
H          6.81686      -12.05738        5.15456
H          4.55843       -9.97506        5.47752
H          6.06791      -10.19247        6.53264
