88

C         -4.14049       -4.15387       -5.85859
S         -4.00662       -4.82411       -4.30143
C         -2.25977       -4.90236       -4.39018
C         -1.91827       -4.92198       -5.74317
C         -2.98966       -4.36767       -6.57308
C         -2.90147       -4.18750       -7.96114
C         -3.98881       -3.66025       -8.74795
N         -4.86812       -3.25252       -9.37434
C         -1.69959       -4.66412       -8.50845
C         -0.65497       -5.24716       -7.72208
C         -0.70360       -5.37195       -6.30913
C          0.27619       -6.10834       -5.57547
N          1.03325       -6.74395       -4.96870
C         -1.49771       -4.99526       -3.17511
C         -2.00325       -4.61049       -1.99008
C         -1.30791       -4.56966       -0.72380
C         -0.71239       -5.61696       -0.09643
O         -0.11525       -5.48337        1.16759
C         -0.17529       -4.25131        1.71300
C         -0.82127       -3.17176        1.08222
C         -0.78407       -2.01157        1.80619
S          0.08196       -2.24757        3.28007
C          0.38134       -3.90327        2.92204
O         -1.41092       -3.30488       -0.12781
C         -0.61557       -6.96039       -0.63342
C         -1.01698       -8.06419        0.02268
C         -0.87126       -9.40490       -0.50142
C         -1.47200       -9.80932       -1.64315
C         -1.25559      -11.22788       -1.83717
C         -1.63918      -11.92698       -3.00417
N         -1.92862      -12.47036       -3.98477
C         -0.57553      -11.74124       -0.79770
C         -0.23012      -10.62151        0.07633
C          0.67805      -10.67954        1.07233
C          1.34656      -11.85215        1.70366
C          2.34665      -11.32386        2.45227
C          2.37808       -9.88178        2.32022
C          1.35650       -9.47982        1.56532
C          3.35794       -9.02453        2.87659
N          4.15639       -8.29941        3.29596
C          0.94180      -13.24623        1.88823
C          1.75318      -14.33843        1.78779
O          1.31799      -15.62957        2.13274
C          0.07105      -15.71760        2.64203
C         -0.76783      -14.59332        2.76278
C         -1.98013      -14.89264        3.33147
S         -2.08658      -16.57205        3.70723
C         -0.50408      -16.87691        3.10090
O         -0.37945      -13.35675        2.36721
C          3.13001      -14.33470        1.30881
C          4.15494      -14.87010        1.99665
C          5.51476      -14.89348        1.53629
S          6.71360      -14.50973        2.73403
C          8.04810      -14.63804        1.65949
C          7.61220      -14.96921        0.38941
C          6.14896      -15.18034        0.32991
C          5.52922      -15.65676       -0.85575
C          4.21428      -16.18211       -0.93311
N          3.15776      -16.66465       -1.05273
C          6.38687      -15.75356       -1.97720
C          7.78350      -15.51938       -1.91863
C          8.45792      -15.16875       -0.73056
C          9.88276      -15.10748       -0.69925
N         11.04549      -15.11366       -0.72060
C          9.35360      -14.45620        2.19930
C          9.93006      -13.24879        2.24252
H         -5.09993       -3.77371       -6.18132
H         -1.57740       -4.65223       -9.59376
H          0.20084       -5.66550       -8.25782
H         -0.45209       -5.28643       -3.21701
H         -3.01314       -4.21532       -1.90746
H         -1.20362       -1.04557        1.56300
H          0.94219       -4.52320        3.60408
H         -0.15179       -7.04986       -1.61380
H         -1.46458       -7.97860        1.01221
H         -2.06865       -9.19392       -2.30285
H         -0.21043      -12.75243       -0.71262
H          2.97405      -11.85701        3.15435
H          1.18114       -8.46396        1.25517
H         -2.80594      -14.23330        3.55626
H         -0.08946      -17.87526        3.12418
H          3.26754      -13.90205        0.32235
H          3.96731      -15.24193        3.00520
H          5.96812      -16.07870       -2.93239
H          8.36468      -15.67485       -2.83049
H          9.89523      -15.33063        2.55402
H          9.43793      -12.34862        1.88894
H         10.93856      -13.14125        2.63366
