117

C          1.57206       -0.92006        1.10205
C          2.30949        0.07684        1.69109
N          2.07471        1.39388        1.51335
C          1.03099        1.71004        0.71862
N          0.24041        0.80705        0.10335
C          0.54181       -0.49282        0.29734
C          0.76599        3.13967        0.44746
C          1.80915        4.08399        0.43760
C          1.54669        5.38793        0.01851
C          0.24517        5.80100       -0.34538
C         -0.80728        4.91079       -0.26636
C         -0.53743        3.58572        0.11324
C          0.29900        7.15934       -0.85476
C          1.63771        7.59476       -0.85071
C          2.54865        6.50779       -0.27167
C          3.59999        6.04796       -1.32478
C          3.03759        5.42383       -2.60692
C          3.25650        7.03078        1.00903
C          2.33436        7.43432        2.16316
C          2.00103        8.84953       -1.32521
C          1.01286        9.69062       -1.85184
C         -0.33042        9.26090       -1.83432
C         -0.69402        7.99643       -1.33595
C          1.35812       11.01671       -2.39360
C          2.49785       11.27032       -3.05195
C          2.82441       12.58029       -3.60785
C          2.56399       12.90317       -4.95978
N          1.83738       12.29860       -5.98063
C          0.69294       11.42254       -5.77154
C         -0.65436       12.10847       -5.92538
C          2.20408       12.84296       -7.21756
C          2.77885       14.09277       -6.91159
C          3.03788       14.10308       -5.50604
C          3.70195       15.03413       -4.67825
C          3.94290       14.72711       -3.34198
C          3.52993       13.50626       -2.82249
C          3.07337       14.99736       -7.93971
C          2.81770       14.65694       -9.26280
C          2.32707       13.39251       -9.57142
C          2.04750       12.44206       -8.56596
C          1.66187       11.08515       -8.96606
C          1.99674        9.96839       -8.30320
C          1.54579        8.63586       -8.64521
C          0.27744        8.22147       -8.80199
C         -0.08541        6.86253       -9.12076
C         -1.40450        6.67624       -9.28005
C         -2.20035        7.87489       -9.06921
S         -1.14585        9.21943       -8.64321
C         -3.54053        7.96973       -9.14732
C         -4.46364        6.90297       -9.48787
C         -5.75471        7.22912       -9.32959
C         -5.95725        8.57581       -8.83894
S         -4.44325        9.44182       -8.80107
C         -7.15267        9.06193       -8.46780
C         -7.46179       10.37067       -7.92714
C         -8.65993       10.97737       -8.11926
C         -8.60387       12.24934       -7.43982
C         -9.49163       13.25735       -7.38515
C         -9.08588       14.42394       -6.62352
C         -9.71528       15.59224       -6.40224
C         -8.88025       16.46040       -5.54096
C         -7.74656       15.79103       -5.22953
C         -7.80699       14.51129       -5.90049
C         -6.92439       13.49561       -5.94372
C         -7.31493       12.35296       -6.74671
C         -6.65685       11.22019       -7.02659
C         -9.19876       17.75927       -5.01797
C         -9.94766       18.66866       -5.65777
H          1.79180       -1.96639        1.24733
H          3.14183       -0.15666        2.34816
H         -0.09193       -1.19924       -0.22882
H          2.82591        3.78132        0.67664
H         -1.81453        5.20203       -0.54158
H         -1.36032        2.87147        0.12106
H          4.27181        5.30993       -0.86730
H          4.23080        6.89800       -1.61528
H          2.44562        4.52533       -2.40262
H          3.85931        5.11923       -3.26335
H          2.41163        6.12707       -3.16416
H          3.86919        7.90525        0.75077
H          3.95353        6.27275        1.38787
H          1.47646        8.02701        1.83306
H          2.88686        8.04129        2.88868
H          1.96009        6.55172        2.69128
H          3.03906        9.16163       -1.28847
H         -1.11378        9.90507       -2.23235
H         -1.73339        7.68586       -1.34357
H          0.59918       11.79155       -2.30381
H          3.26387       10.50951       -3.20697
H          0.74750       10.97189       -4.78861
H          0.74679       10.57411       -6.43717
H         -1.05527       12.37993       -4.94381
H         -1.37146       11.41883       -6.38255
H         -0.60871       13.00996       -6.54144
H          4.06104       15.97083       -5.09558
H          4.48371       15.43259       -2.71733
H          3.77556       13.26371       -1.79090
H          3.51692       15.96191       -7.70289
H          3.04802       15.36322      -10.05701
H          2.19167       13.13258      -10.61793
H          1.10488       11.01018       -9.89736
H          2.62463       10.01695       -7.41413
H          2.35396        7.91166       -8.71211
H          0.65040        6.07827       -9.22377
H         -1.83381        5.71786       -9.52501
H         -4.14129        5.92994       -9.82919
H         -6.57381        6.55085       -9.52545
H         -8.02070        8.41259       -8.57546
H         -9.49780       10.61590       -8.69185
H        -10.44975       13.23344       -7.88502
H        -10.68567       15.87636       -6.77203
H         -6.93222       16.13092       -4.60716
H         -5.97133       13.51559       -5.43488
H         -5.67688       10.95777       -6.65956
H         -8.80078       18.00357       -4.03458
H        -10.34425       18.49373       -6.64651
H        -10.15213       19.63270       -5.19766
