90

C          3.13824        0.83642      -11.02971
C          2.97595        1.51606      -12.34489
N          2.05872        0.23293      -10.47375
N          2.11172       -0.50265       -9.23070
C          3.28266       -0.87934       -8.53915
C          4.38594       -0.05759       -9.01640
C          4.31156        0.72607      -10.25790
N          5.51922        1.26373      -10.48287
O          6.30470        0.90322       -9.40695
N          5.61426        0.11958       -8.50463
C          3.47636       -2.36477       -9.01792
C          3.11800       -0.91560       -6.99338
C          3.75056       -1.67353       -6.07930
C          3.16707       -2.00132       -4.72295
C          2.00731       -1.28346       -4.20732
C          1.42238       -0.31236       -4.90360
S          1.87600        0.24460       -6.46227
N          3.73880       -2.99696       -4.07865
C          4.80856       -3.31961       -4.93168
C          4.85170       -2.54893       -6.05900
S          6.33353       -2.71444       -6.83007
C          6.82607       -4.00216       -5.75374
C          5.86714       -4.21463       -4.76700
C          8.09688       -4.61933       -5.94530
C          8.27040       -5.92677       -5.69825
C          9.53598       -6.60879       -5.89127
C          9.74507       -7.57988       -6.79551
C          8.79557       -8.07519       -7.75778
C          9.32809       -8.92769       -8.64559
C         10.74188       -9.19505       -8.43520
S         11.29287       -8.38009       -6.96856
C         11.53886       -9.89268       -9.27030
C         11.15803      -10.37975      -10.58466
C         12.19551      -10.77524      -11.33538
C         13.46999      -10.66205      -10.66173
S         13.23709      -10.26213       -8.97444
C         14.64843      -10.81522      -11.28689
C         15.98910      -10.71035      -10.72778
C         16.51680       -9.60264      -10.20007
C         17.85152       -9.49764       -9.52927
C         18.74955      -10.65195       -9.53297
C         18.39801      -11.81908      -10.07732
S         16.90002      -12.20533      -10.84301
N         18.11520       -8.33865       -8.96385
C         16.94288       -7.60278       -9.25193
C         16.04045       -8.30261       -9.99645
S         14.72281       -7.36912      -10.42480
C         15.22467       -6.09230       -9.33874
C         16.51014       -6.33605       -8.85148
C         14.31504       -5.02390       -9.08792
C         14.33635       -4.36208       -7.91817
C         13.38534       -3.24963       -7.51731
C         12.57828       -3.80660       -6.31312
N         12.45893       -2.95777       -8.52828
N         12.12706       -1.63766       -9.03971
C         12.76047       -0.50266       -8.65261
C         13.81243       -0.72354       -7.74635
C         14.13151       -2.04028       -7.20622
N         15.18030       -1.89620       -6.37518
O         15.51509       -0.55841       -6.40260
N         14.67164        0.16361       -7.22232
C         12.34382        0.80331       -9.22971
H          2.07904        2.14342      -12.34022
H          2.86674        0.76387      -13.13280
H          3.83617        2.14683      -12.58423
H          3.45292       -2.41499      -10.11335
H          2.68814       -3.00237       -8.60185
H          4.43090       -2.77919       -8.70838
H          1.65489       -1.57140       -3.22310
H          0.57721        0.19845       -4.44818
H          5.97127       -4.91592       -3.94992
H          8.91680       -4.01196       -6.32175
H          7.44640       -6.55326       -5.36790
H         10.34467       -6.28856       -5.24427
H          7.76067       -7.76419       -7.77702
H          8.74987       -9.37502       -9.43773
H         10.14571      -10.35472      -10.95952
H         12.10260      -11.10647      -12.36059
H         14.64001      -11.08164      -12.34370
H         19.71694      -10.51089       -9.06499
H         19.12092      -12.63051      -10.03822
H         17.06033       -5.66369       -8.20776
H         13.56223       -4.79712       -9.83992
H         15.06126       -4.62193       -7.14696
H         12.08336       -4.74456       -6.58957
H         11.82771       -3.07790       -5.98709
H         13.24574       -4.03934       -5.47527
H         11.28813        0.77434       -9.51713
H         12.94336        1.02941      -10.11589
H         12.47229        1.60817       -8.49952
