54

C         -3.26573       -7.92205        2.27415
C         -2.27551       -7.88865        1.29418
C         -1.88139       -6.66359        0.75757
F         -0.92543       -6.65212       -0.18170
C         -2.46033       -5.46139        1.18419
C         -3.45532       -5.50409        2.16695
C         -3.84404       -6.73053        2.70167
F         -4.79201       -6.76233        3.64667
C         -2.04860       -4.18073        0.60345
C         -2.64614       -3.55771       -0.55772
C         -2.06233       -2.39119       -0.84514
C         -1.01603       -2.22777        0.17242
O         -0.25210       -1.28526        0.25357
C         -1.06436       -3.39810        1.07153
C         -0.23113       -3.58944        2.19278
S         -0.73075       -2.98999        3.71674
C          0.74849       -3.43033        4.49628
C          1.56432       -4.11598        3.60690
C          1.01805       -4.17214        2.28391
C          1.68889       -4.75315        1.15518
N          2.23449       -5.22069        0.24721
C          2.83049       -4.70368        3.94763
N          3.85298       -5.18694        4.18943
C          0.88025       -3.04519        5.86570
C          2.06058       -2.76707        6.44373
C          2.19035       -2.29952        7.81712
C          1.22984       -1.42576        8.46904
C          1.61446       -1.08098        9.69523
C          2.90726       -1.74581        9.88091
O          3.55197       -1.67232       10.90984
C          3.24661       -2.49006        8.63885
C          4.44301       -3.23016        8.43311
S          4.45724       -4.73792        7.55663
C          6.15606       -4.93168        7.65194
C          6.69187       -3.96080        8.44068
C          5.72591       -3.04628        8.86283
C          6.37953       -2.07576        9.67698
C          7.75292       -2.31569        9.84234
C          8.71420       -1.51350       10.65977
S          8.38683       -3.70833        8.98133
H         -3.59002       -8.86435        2.70598
H         -1.80893       -8.80499        0.94425
H         -3.93451       -4.59804        2.52651
H         -3.46452       -3.99329       -1.11444
H         -2.26687       -1.68792       -1.63116
H         -0.03832       -2.91864        6.43774
H          2.99157       -2.84841        5.88934
H          0.31793       -1.08219        8.00028
H          1.13212       -0.45107       10.41920
H          6.68095       -5.74432        7.16831
H          5.88552       -1.24098       10.15962
H          9.25736       -2.15305       11.36371
H          8.18995       -0.74828       11.24124
H          9.43885       -1.00994       10.01195
