72

C          1.69622        0.70123        1.10625
S          0.34431       -0.32826        0.89057
C          1.29777       -1.77906        0.87687
C          2.62211       -1.45720        1.09099
C          2.79279       -0.07680        1.21123
C          4.15808        0.23089        1.41086
C          4.97494       -0.90686        1.43915
C          6.45915       -0.94294        1.62346
S          4.14463       -2.43895        1.21915
C          0.71274       -3.09261        0.68625
S          1.34765       -4.45725        1.51044
C          0.24375       -5.56565        0.79806
C         -0.65689       -4.88379       -0.00451
C         -0.39158       -3.47313       -0.06503
C         -1.20370       -2.57771       -0.84137
N         -1.88846       -1.88437       -1.47014
C         -1.75545       -5.51100       -0.69036
N         -2.62378       -6.02140       -1.25307
C          0.39944       -6.93528        1.16234
C          0.02196       -7.96638        0.38967
C          0.22110       -9.31830        0.79199
S          0.21002       -9.81934        2.43832
C          0.43971      -11.49589        2.09024
C          0.54782      -11.65905        0.72433
C          0.40012      -10.44152        0.05318
C          0.49456      -10.64809       -1.34707
C          0.74109      -11.98137       -1.69388
C          0.95373      -12.51369       -3.07685
S          0.83438      -13.10370       -0.34531
C          0.46491      -12.51706        3.09344
C          0.03824      -13.89696        2.92844
C          0.15119      -14.60591        4.05078
C          0.68070      -13.65801        5.02710
O          0.94916      -13.92766        6.18387
C          0.83410      -12.32836        4.37971
C          1.27891      -11.19733        5.16867
C          2.43578      -10.52390        5.06241
C          3.00411       -9.38904        5.84598
C          2.55643       -8.86641        7.01600
C          1.38113       -9.32376        7.67867
N          0.41919       -9.67008        8.23138
C          3.23033       -7.81286        7.71622
N          3.75985       -6.95182        8.28989
C          4.27549       -8.99502        5.15130
C          4.52826       -9.91547        4.12735
C          3.43164      -10.86692        3.99140
O          3.38055      -11.72626        3.13643
C          5.66256       -9.90808        3.33138
C          6.58851       -8.89719        3.54184
C          6.34355       -7.90257        4.50516
C          5.18924       -7.96025        5.31745
C          7.33340       -6.78787        4.69435
H          1.59355        1.77636        1.14847
H          4.55297        1.23362        1.52661
H          6.87335        0.07023        1.65490
H          6.93885       -1.47387        0.79474
H          6.72110       -1.44373        2.56121
H          0.90057       -7.12836        2.10956
H         -0.41858       -7.82171       -0.59166
H          0.41467       -9.86563       -2.09285
H          0.72808      -11.74677       -3.82648
H          0.31011      -13.37551       -3.27820
H          1.99868      -12.81195       -3.21139
H         -0.35811      -14.29975        2.00844
H         -0.09086      -15.63241        4.25159
H          0.56117      -10.97319        5.95141
H          5.81357      -10.66906        2.57133
H          7.49429       -8.87378        2.93932
H          5.05336       -7.17117        6.04897
H          8.01453       -6.71660        3.83976
H          7.92506       -6.95936        5.59819
H          6.81251       -5.82843        4.77619
