86

C         -5.41861       -0.72319        0.68453
N         -5.49129       -1.75422        1.55182
N         -4.44742       -2.72611        1.70085
C         -3.28395       -2.72818        0.98571
C         -3.15096       -1.68122        0.03895
C         -4.25163       -0.64775       -0.09418
N         -3.98704        0.30356       -1.00639
S         -2.50658       -0.06055       -1.65217
N         -2.15379       -1.45450       -0.83740
C         -2.31185       -3.78425        1.24146
S         -2.89610       -5.31930        1.75989
C         -1.32452       -5.97634        1.92597
C         -0.34666       -5.05761        1.58452
C         -0.93283       -3.82381        1.15462
O         -0.19378       -2.75457        0.77890
C          0.53737       -3.02562       -0.42310
C          1.90475       -3.64341       -0.14476
C          1.84607       -5.09676        0.33493
C          1.13750       -5.27169        1.67691
C         -1.19179       -7.29510        2.42938
C         -1.05788       -8.33630        1.59319
C         -0.89705       -9.66889        2.07477
S         -0.01210      -10.78219        1.10994
C         -0.17724      -12.05600        2.24838
C         -0.96246      -11.67940        3.32698
C         -1.32469      -10.29865        3.23130
O         -2.08369       -9.65689        4.15283
C         -1.42489       -9.58022        5.41900
C         -1.71700      -10.79880        6.28693
C         -0.98811      -12.06635        5.82936
C         -1.41849      -12.56677        4.45021
C          0.42603      -13.30564        1.94059
C          1.67195      -13.57451        2.36365
C          2.36553      -14.78636        2.05371
S          4.00790      -14.93960        2.54999
C          4.18857      -16.53230        1.90949
C          3.01298      -16.94275        1.28838
C          1.98506      -15.94727        1.40978
O          0.74437      -16.11464        0.89395
C          0.02092      -17.13241        1.58931
C          0.25466      -18.51218        0.98044
C          1.66648      -19.06437        1.20963
C          2.75860      -18.22403        0.54352
C          5.46636      -17.15130        2.06811
C          5.61319      -18.47284        2.25551
C          6.91012      -19.12762        2.39666
N          8.06480      -18.41743        2.48676
N          9.36057      -19.01551        2.63549
C          9.56128      -20.35221        2.69687
C          8.41293      -21.15680        2.59695
C          7.04610      -20.53770        2.44117
N          6.06796      -21.46192        2.35521
S          6.79794      -22.94749        2.46340
N          8.38686      -22.50033        2.62671
H         -6.24453       -0.03068        0.63288
H         -0.04725       -3.63696       -1.12491
H          0.69332       -2.05669       -0.91064
H          2.43481       -3.04017        0.60166
H          2.49357       -3.61385       -1.06926
H          1.36778       -5.72087       -0.43045
H          2.87653       -5.45864        0.43863
H          1.55473       -4.57553        2.41574
H          1.35320       -6.27895        2.05195
H         -1.18739       -7.41155        3.50653
H         -1.04046       -8.17306        0.51810
H         -0.34589       -9.40595        5.30687
H         -1.83025       -8.69241        5.91797
H         -2.79683      -10.98898        6.30440
H         -1.40578      -10.57692        7.31456
H          0.09548      -11.89597        5.84845
H         -1.19745      -12.85506        6.56260
H         -2.51215      -12.65497        4.41169
H         -1.02575      -13.58099        4.31308
H         -0.15103      -13.98666        1.32663
H          2.19907      -12.82812        2.95632
H          0.23409      -17.11834        2.66685
H         -1.03941      -16.87860        1.47930
H          0.06203      -18.47138       -0.09850
H         -0.46679      -19.21289        1.41611
H          1.85685      -19.15611        2.28683
H          1.70387      -20.07823        0.79401
H          2.47308      -17.98788       -0.48969
H          3.66863      -18.82261        0.45797
H          6.34343      -16.50477        2.06089
H          4.75340      -19.13147        2.31551
H         10.56929      -20.71932        2.81502
