69

C          0.75585       -3.10614       -1.59818
C          0.17436       -2.11448       -2.40158
C          0.03550       -0.76769       -1.97613
C          0.45674       -0.28034       -0.70602
C          1.05981       -1.27159        0.10651
C          1.20095       -2.65869       -0.34079
N          1.80468       -3.36068        0.62487
O          2.05019       -2.46189        1.64513
N          1.60939       -1.19395        1.32887
C          0.31119        1.10649       -0.28674
N          0.19226        1.38393        1.02088
C          0.07301        2.67941        1.35635
C          0.05513        3.70075        0.43916
C          0.15273        3.32084       -0.88140
N          0.27361        2.03269       -1.26165
C          0.15337        4.33603       -1.94393
C          0.28626        4.03696       -3.24568
C          0.36846        5.05223       -4.27207
C          0.95674        4.89897       -5.46686
C          1.61305        3.72232       -5.98074
C          2.25183        3.92785       -7.13953
C          2.16645        5.29483       -7.62656
S          1.10415        6.23855       -6.58256
C          2.83175        5.79603       -8.68484
C          3.73068        5.05020       -9.54827
C          4.36136        5.80283      -10.45797
C          4.01032        7.19859      -10.38505
S          2.77844        7.48985       -9.18720
C          4.57405        8.15651      -11.13129
N          4.29688        9.50666      -11.14952
C          4.89978       10.48203      -11.88544
S          6.49733       10.33889      -12.52207
C          6.43866       11.87540      -13.22558
N          7.56467       12.37782      -13.96581
O          7.42848       13.50118      -14.47397
O          8.57848       11.67438      -14.04939
C          5.23998       12.51604      -13.01439
C          4.36192       11.71853      -12.21836
C          3.03368       12.12090      -11.86929
C          2.73013       12.79833      -10.75022
C          1.37573       13.22492      -10.39944
C          0.18228       12.54545      -10.73699
C         -1.10946       12.99530      -10.35269
C         -1.32299       14.15668       -9.58919
C         -0.15021       14.84305       -9.22450
C          1.18203       14.38925       -9.61467
N          2.07329       15.25570       -9.10899
O          1.33654       16.21378       -8.43572
N         -0.02234       15.96322       -8.50416
H          0.86686       -4.13365       -1.91830
H         -0.18695       -2.38851       -3.39315
H         -0.43088       -0.06490       -2.67123
H         -0.00662        2.87614        2.42146
H         -0.02795        4.73312        0.74936
H          0.09389        5.37193       -1.62279
H          0.37601        2.99808       -3.55391
H         -0.04496        6.02627       -4.01330
H          1.61645        2.77188       -5.46626
H          2.81130        3.15016       -7.63877
H          3.89047        3.98509       -9.46496
H          5.07150        5.41629      -11.17596
H          5.34388        7.86642      -11.84258
H          3.49429        9.75420      -10.56917
H          5.00157       13.49957      -13.40533
H          2.25712       11.85694      -12.58392
H          3.51967       13.08334      -10.05579
H          0.23791       11.62134      -11.31338
H         -1.97572       12.40804      -10.66088
H         -2.30876       14.49529       -9.29734
