47

C          2.08901       -0.52761        0.20381
C          1.99169        0.89081        0.01953
C          0.87592        1.20877       -0.63754
C          0.20560       -0.07518       -0.89348
O         -0.85079       -0.19828       -1.48440
C          1.03000       -1.16607       -0.30758
C          0.69139       -2.56547       -0.35780
C         -0.01898       -3.21336       -1.44869
C         -0.26027       -4.50329       -1.20735
C          0.30563       -4.74403        0.12274
O          0.28661       -5.80659        0.71384
C          0.89033       -3.47649        0.61283
C          1.47089       -3.30266        1.89065
S          0.46912       -2.91595        3.23162
C          1.79178       -2.84603        4.34383
C          2.97662       -3.13004        3.68070
C          2.79218       -3.39794        2.28874
C          3.86563       -3.67496        1.38055
N          4.74326       -3.84032        0.63911
C          4.25887       -3.10679        4.31352
N          5.28830       -3.08369        4.84863
C          1.50253       -2.48511        5.69701
C          2.22764       -2.89412        6.75538
C          1.89709       -2.52706        8.12399
C          0.53672       -2.35929        8.60615
C          0.49283       -2.06117        9.90148
C          1.89349       -2.06222       10.32251
O          2.25609       -1.81459       11.45844
C          2.76078       -2.40208        9.15407
C          4.19904       -2.50695        9.28730
C          4.90987       -2.96719       10.46903
C          6.23275       -2.84698       10.34895
C          6.42544       -2.27158        9.01742
O          7.49634       -1.96536        8.53197
C          5.10483       -2.09208        8.38778
H          2.94475       -0.97393        0.68472
H          2.73442        1.59287        0.37143
H          0.50003        2.16885       -0.93826
H         -0.32875       -2.69101       -2.34557
H         -0.76931       -5.23397       -1.80877
H          0.63396       -1.84672        5.85667
H          3.08273       -3.55563        6.64712
H         -0.33915       -2.48442        7.98465
H         -0.34917       -1.87984       10.54184
H          4.41289       -3.34363       11.35367
H          7.01645       -3.07798       11.04664
H          4.98490       -1.65128        7.41572
