83

C          2.18295       10.89902       14.54088
C          2.64066       10.68276       15.82057
C          2.54827       11.60537       16.90682
N          2.47771       12.36190       17.78328
S          3.33049        9.13953       15.97929
C          3.19772        8.78902       14.28614
C          2.46937        9.79754       13.66803
C          2.09260        9.78228       12.28480
N          1.76825        9.77363       11.17258
N          3.69623        7.63289       13.73160
C          4.82290        6.94034       14.10862
S          6.19385        7.70778       14.85500
C          7.03419        6.25686       14.97997
N          8.32169        6.24126       15.59115
O          9.22631        5.69539       14.94755
O          8.41825        6.73114       16.72277
C          6.38404        5.19450       14.41254
C          5.10818        5.59307       13.90082
C          4.24654        4.64631       13.26321
C          3.32116        3.92920       13.92216
C          2.58449        2.84957       13.33814
C          2.17230        2.54262       12.02825
C          2.51312        3.37070       10.91881
N          2.87226        4.07422       10.06931
C          1.43519        1.34211       11.99558
C          1.36992        0.74438       13.20808
S          2.07850        1.59264       14.44690
S          0.57016       -0.72947       13.22618
C          0.26114       -0.52559       11.58939
C          0.74260        0.60123       11.03018
C          0.38533        0.73000        9.65945
C          0.70830        1.79840        8.75770
N          0.91585        2.62211        7.97477
C         -0.42526       -0.35548        9.23438
S         -0.56735       -1.49452       10.55182
C         -1.03835       -0.58453        7.93390
C         -1.77627       -1.63621        7.52049
C         -2.16274       -1.87969        6.13409
C         -2.29524       -3.19517        5.86230
C         -1.97942       -4.01417        7.02587
S         -2.26678       -3.03773        8.44135
C         -1.32701       -5.19041        7.05028
C         -0.97088       -6.00252        5.90686
C          0.00119       -6.89255        6.15905
C          0.51179       -6.82696        7.51355
S         -0.53844       -5.83728        8.50162
C          1.66481       -7.39937        7.90223
C          2.24925       -7.20326        9.18983
S          3.25616       -5.82637        9.44830
C          3.50620       -6.15691       11.13309
C          2.83642       -7.32335       11.46891
C          2.19989       -7.96148       10.34005
C          1.54047       -9.19318       10.40804
C          1.52067       -9.74258       11.71426
C          0.87408      -11.05508       11.85410
C         -0.44734      -11.17723       12.02179
C          2.08673       -9.07834       12.86655
C          1.92441       -9.68741       14.24217
C          2.80102       -7.85142       12.76967
C          4.26461       -5.26099       11.95406
C          5.32144       -4.56466       11.51512
H          1.67776       11.81000       14.23485
H          3.24769        7.29330       12.87868
H          6.78611        4.18795       14.37580
H          4.48701        4.44531       12.22357
H          3.17789        4.11904       14.98741
H         -0.80963        0.16258        7.17345
H         -2.27531       -1.09143        5.40232
H         -2.52363       -3.60173        4.88881
H         -1.43735       -5.88209        4.93987
H          0.41064       -7.56155        5.41615
H          2.24152       -7.98920        7.19621
H          1.08538       -9.69077        9.56116
H          1.52416      -11.92426       11.80582
H         -1.09734      -10.30867       12.07324
H         -0.90416      -12.15650       12.11672
H          0.86849       -9.89799       14.44381
H          2.26070       -9.00030       15.02609
H          2.50621      -10.61000       14.32441
H          3.24876       -7.37710       13.63374
H          3.97932       -5.16587       12.99859
H          5.69394       -4.62856       10.49728
H          5.86221       -3.90567       12.18822
