106

C         -0.23476       -3.07168       17.11700
C         -0.39790       -4.39396       17.19390
C         -0.02948       -5.21231       18.31660
C         -0.32296       -6.50828       18.14739
C         -0.94755       -6.81187       16.86957
S         -1.10436       -5.33429       15.91228
C         -1.35879       -8.02787       16.46193
C         -1.26593       -9.26167       17.22241
C         -1.77426      -10.33130       16.59649
C         -2.31477      -10.03145       15.29288
S         -2.10559       -8.34254       14.90082
C         -2.88457      -10.94593       14.49538
C         -3.44341      -10.71699       13.18317
C         -4.44205       -9.85623       12.93349
C         -4.91478       -9.69097       11.60840
O         -4.79712      -10.66678       10.64523
C         -5.33220      -10.23161        9.45379
C         -5.78500       -8.93964        9.66834
C         -5.53168       -8.61060       11.00859
O         -5.78816       -7.43319       11.60567
O         -6.33396       -8.11393        8.75718
C         -5.36102      -11.05128        8.29493
C         -4.43347      -12.00745        8.13090
C         -4.42368      -12.89084        6.99172
C         -3.85680      -14.10591        7.01076
C         -3.82362      -15.00759        5.88147
C         -4.77000      -15.06857        4.93336
C         -4.71862      -16.01648        3.88165
O         -5.87582      -16.50028        3.31603
C         -5.58035      -17.45163        2.36493
C         -4.19966      -17.52212        2.28434
C         -3.66773      -16.63540        3.22944
O         -2.36076      -16.42158        3.46486
O         -3.47245      -18.31533        1.47502
C         -6.58560      -18.15657        1.65799
C         -7.78401      -18.36448        2.22274
C         -8.84516      -19.06581        1.54882
C         -9.38882      -18.64381        0.39596
C        -10.40542      -19.43149       -0.20633
S         -9.90309      -20.63964       -1.34199
C        -11.46311      -21.33446       -1.43426
C        -12.37325      -20.63669       -0.67868
C        -11.77866      -19.47318       -0.02325
C        -12.54528      -18.58771        0.76688
C        -13.89995      -18.96823        0.87815
C        -14.45856      -20.11213        0.24766
C        -13.72634      -21.00926       -0.55721
O        -14.25645      -22.10982       -1.17523
C        -15.36512      -22.68604       -0.48126
C        -12.10526      -17.31875        1.33214
C        -11.87124      -17.20163        2.64543
C        -11.65627      -15.93398        3.32587
C        -11.41099      -15.77919        4.63916
C        -11.27552      -14.56271        5.49398
C        -10.97884      -13.29891        5.09145
C        -10.76903      -12.21677        6.00484
N        -10.58893      -11.33686        6.72871
C        -10.78601      -12.95225        3.72184
N        -10.62772      -12.65686        2.61150
C        -11.35706      -15.03571        6.92142
C        -11.35666      -16.42928        6.91509
C        -11.33061      -16.95910        5.56053
O        -11.23603      -18.14352        5.31996
C        -11.35327      -17.24259        8.04009
C        -11.30356      -16.60931        9.29009
C        -11.34012      -15.20720        9.33423
C        -11.40168      -14.40084        8.15961
S        -11.27348      -14.65539       10.97284
C        -11.12177      -16.22904       11.56917
C        -11.18692      -17.18728       10.59638
Br       -10.87736      -16.62977       13.38212
H          0.20451       -2.50597       17.93084
H         -0.54102       -2.51605       16.23600
H          0.43606       -4.81025       19.20503
H         -0.11281       -7.25794       18.89591
H         -0.83179       -9.31873       18.20928
H         -1.79117      -11.32685       17.01799
H         -2.92376      -11.98556       14.81422
H         -3.00552      -11.30643       12.37910
H         -4.88771       -9.25127       13.71724
H         -6.15594       -6.82903       10.93402
H         -6.28592       -8.50967        7.87018
H         -6.16912      -10.91805        7.58342
H         -3.63906      -12.14012        8.86495
H         -4.91076      -12.52348        6.09150
H         -3.37305      -14.47899        7.90920
H         -2.98642      -15.70560        5.87230
H         -5.64432      -14.42783        4.96240
H         -1.84989      -16.98382        2.85314
H         -4.05410      -18.83666        0.89568
H         -6.36775      -18.53285        0.66480
H         -7.99998      -18.04942        3.24292
H         -9.20800      -19.96490        2.04411
H         -9.05709      -17.73529       -0.09755
H        -11.61484      -22.21588       -2.04181
H        -14.57566      -18.34286        1.46302
H        -15.52592      -20.25262        0.39444
H        -15.69802      -23.57063       -1.03079
H        -16.22350      -22.00711       -0.43700
H        -15.06750      -22.99885        0.52604
H        -12.12741      -16.46530        0.66349
H        -11.88925      -18.11615        3.23312
H        -11.77463      -15.07284        2.67459
H        -11.34006      -18.32489        7.94071
H        -11.44312      -13.32404        8.27833
H        -11.11733      -18.25309       10.78197
