100

C          3.68931      -13.60199       10.80282
C          4.66412      -13.55476        9.89402
C          6.01362      -14.02221       10.08526
C          6.79804      -13.82641        9.01537
C          6.12500      -13.17485        7.90245
S          4.43092      -12.89133        8.30434
C          6.68316      -12.80661        6.73278
C          8.07161      -12.99223        6.33510
C          8.37945      -12.48948        5.13826
C          7.25861      -11.85617        4.47341
S          5.81084      -11.98808        5.44176
C          7.34476      -11.21159        3.29571
C          6.25816      -10.46994        2.73837
S          5.23504      -11.27833        1.61777
C          4.19777       -9.94149        1.49014
C          4.61474       -8.85491        2.23149
C          3.84397       -7.57122        2.28238
C          5.85429       -9.14548        2.93029
C          6.53530       -8.16835        3.75215
C          7.70085       -8.32198        4.40146
C          8.32106       -7.31035        5.21965
C          9.44269       -7.54967        5.91815
C         10.09821       -6.55124        6.69054
N         11.40830       -6.51337        6.91502
C         11.71245       -5.33068        7.51486
C         10.64045       -4.50034        7.77418
S          9.19396       -5.20568        7.38523
C         11.07699       -3.15058        8.13477
C         12.38847       -3.14666        7.26425
C         13.03969       -4.56744        7.60562
C         13.58498       -4.62894        9.07086
C         14.15870       -5.97728        9.51079
C         14.11796       -4.99799        6.58833
C         13.67516       -5.21439        5.14472
N         13.07129       -1.83841        7.41521
C         12.02177       -0.83255        7.80696
S         10.37838       -1.62575        7.61911
C         13.82330       -1.38466        6.34365
S         15.13534       -0.31176        6.57217
C         15.40963       -0.09378        4.87431
C         16.40330        0.89112        4.47597
O         16.39190        1.57616        3.46503
O         17.40923        1.01359        5.38707
C         14.56452       -0.90073        4.12895
C         13.64019       -1.59548        4.99010
C         14.49289       -1.12719        2.70411
C         15.29932       -0.73340        1.70429
C         15.14338       -1.12413        0.27846
C         14.68454       -2.38720       -0.23173
O         14.20291       -3.24695        0.73835
C         14.46875       -4.63786        0.62583
C         14.61071       -2.68446       -1.63639
O         14.15727       -3.92991       -2.00971
C         13.38440       -4.01479       -3.20581
C         15.04099       -1.77511       -2.62030
C         15.51024       -0.52249       -2.17406
C         15.57167       -0.18235       -0.71107
N         16.05462        1.05764       -0.50693
S         16.37463        1.71755       -1.99135
N         15.93795        0.46134       -2.98055
H          3.84781      -14.01120       11.79162
H          2.69551      -13.22287       10.57643
H          6.34480      -14.48225       11.00353
H          7.83990      -14.11523        8.99419
H          8.80756      -13.48724        6.96998
H          9.36735      -12.52230        4.69839
H          8.29378      -11.15045        2.76849
H          3.31469      -10.01443        0.86884
H          2.93352       -7.63221        1.67493
H          4.44448       -6.74057        1.89941
H          3.53835       -7.34574        3.30943
H          6.04107       -7.20179        3.84842
H          8.25804       -9.24465        4.35120
H          7.83866       -6.33596        5.22741
H          9.94417       -8.51201        5.86274
H         11.27512       -3.08307        9.20846
H         12.05533       -3.21646        6.21620
H         14.35052       -3.85791        9.21136
H         12.78975       -4.40510        9.79191
H         15.04739       -6.25569        8.93963
H         13.41763       -6.77831        9.42285
H         14.46208       -5.92464       10.56271
H         14.92399       -4.25368        6.60478
H         14.57806       -5.94284        6.89807
H         13.32750       -6.24310        5.00339
H         14.52463       -5.06660        4.46984
H         12.87465       -4.54783        4.82571
H         12.05000        0.09157        7.21950
H         12.16349       -0.57880        8.86291
H         17.26145        0.43141        6.15711
H         12.84559       -2.21216        4.58923
H         13.65672       -1.76228        2.41466
H         16.14279       -0.07598        1.88686
H         15.52192       -4.83988        0.40998
H         13.80300       -5.12073       -0.09242
H         14.23419       -5.08635        1.59792
H         13.24088       -5.07664       -3.42866
H         13.87959       -3.58413       -4.07915
H         12.40016       -3.55965       -3.05799
H         15.04754       -1.98226       -3.68021
