90

C          0.69845      -19.67479       -9.90985
C          1.70326      -18.91810      -10.35563
C          2.65767      -19.30231      -11.35977
C          3.58008      -18.36075      -11.60379
C          3.42644      -17.15870      -10.79698
S          2.00544      -17.31376       -9.75676
C          4.24754      -16.09017      -10.79410
C          5.44423      -15.92494      -11.59940
C          6.15194      -14.82471      -11.30655
C          5.57264      -14.02714      -10.24837
S          4.03547      -14.68848       -9.74412
C          6.16373      -12.94477       -9.72156
C          5.59015      -12.19400       -8.66514
O          4.76832      -11.08799       -8.86186
C          5.69155      -12.33557       -7.30911
C          6.30435      -13.15535       -6.31121
O          7.05568      -14.09390       -6.46945
N          5.86885      -12.61807       -5.11835
C          5.02393      -11.54084       -5.26181
O          4.50609      -10.91894       -4.35297
C          4.92356      -11.35796       -6.68165
C          4.34294      -10.56033       -7.64057
C          3.48719       -9.42820       -7.56385
C          3.14626       -8.89567       -6.38459
C          2.30034       -7.75361       -6.18070
C          1.00787       -7.62353       -6.53022
C          0.17996       -8.67824       -7.21713
C          0.27074       -6.36193       -6.16273
N          0.39335       -5.41725       -7.25043
C         -0.41845       -5.36462       -8.35165
C         -0.31261       -4.56587       -9.42123
C         -1.30443       -4.62352      -10.44377
O         -2.39321       -5.46372      -10.34894
C         -3.18971       -5.34754      -11.44797
C         -2.63687       -4.36530      -12.24913
C         -1.44042       -3.90328      -11.63034
C         -0.53999       -2.87471      -12.13808
O          0.65207       -2.83710      -11.83651
C         -1.11600       -1.85120      -13.09123
C         -4.35008       -6.14358      -11.62963
C         -4.77787       -6.44151      -12.86454
C         -5.94696       -7.24938      -13.13144
C         -6.41241       -7.59770      -14.34233
C         -7.55770       -8.46821      -14.68919
C         -8.69470       -8.64853      -13.96974
C         -9.79314       -9.42041      -14.44868
N        -10.68492      -10.04983      -14.83784
C         -8.92318       -8.01408      -12.71043
N         -9.10686       -7.49760      -11.69115
C         -7.31812       -8.94001      -16.08755
C         -6.27867       -8.18768      -16.63811
C         -5.70699       -7.28119      -15.63713
O         -4.83606       -6.46712      -15.86452
C         -5.82156       -8.32022      -17.94583
C         -6.44000       -9.29410      -18.75917
C         -7.45463      -10.08758      -18.20227
C         -7.89928       -9.93497      -16.86382
S         -8.05182      -11.22965      -19.35348
C         -7.00465      -10.66719      -20.55099
C         -6.19492       -9.64645      -20.13074
Br        -6.95556      -11.37785      -22.28318
H          0.52533      -20.67459      -10.29116
H          0.01943      -19.31282       -9.14348
H          2.62668      -20.26195      -11.85664
H          4.37362      -18.49339      -12.32469
H          5.75261      -16.63253      -12.35567
H          7.07900      -14.55848      -11.79620
H          7.12990      -12.61447      -10.08638
H          6.13050      -12.97434       -4.21660
H          3.11941       -9.00429       -8.49507
H          3.53952       -9.27043       -5.45120
H          2.78324       -6.95753       -5.61458
H          0.71881       -9.61129       -7.40201
H         -0.17836       -8.31242       -8.18339
H         -0.68969       -8.93358       -6.60136
H          0.69574       -5.91499       -5.25603
H         -0.77978       -6.57418       -5.93341
H          1.17143       -4.76707       -7.21152
H         -1.23717       -6.08092       -8.28731
H          0.51209       -3.86755       -9.51132
H         -3.04783       -4.03308      -13.19321
H         -2.07706       -1.48437      -12.71748
H         -1.24366       -2.28834      -14.08453
H         -0.43688       -0.99670      -13.16024
H         -4.84394       -6.52187      -10.73964
H         -4.21347       -6.07440      -13.71652
H         -6.44278       -7.60004      -12.23031
H         -5.01099       -7.69828      -18.31763
H         -8.67011      -10.60116      -16.49397
H         -5.45669       -9.16286      -20.75954
