113

C         10.67508       -2.86760       -4.54726
C         10.44724       -2.48329       -3.29057
C         11.03492       -1.33770       -2.65010
C         10.61979       -1.16581       -1.38657
C          9.65424       -2.16175       -0.93805
S          9.37022       -3.33861       -2.22428
C          9.02380       -2.17849        0.25447
C          9.21203       -1.21991        1.32833
C          8.34631       -1.36056        2.34132
C          7.39544       -2.43474        2.14976
S          7.78359       -3.35219        0.71583
C          6.34412       -2.62660        2.96278
C          5.32875       -3.61029        2.76921
S          3.99489       -3.19889        1.75657
C          3.24548       -4.70541        1.99654
C          3.94766       -5.52798        2.85335
C          3.47474       -6.89250        3.24758
C          5.15070       -4.87520        3.32534
C          6.05007       -5.50694        4.25485
C          6.71296       -4.90688        5.25454
C          7.57006       -5.62676        6.17032
C          8.21511       -5.00759        7.16890
C          9.09747       -5.68349        8.06097
S          9.25736       -5.07686        9.65915
C         10.59773       -6.09744       10.05158
C         10.78224       -7.03064        9.04369
C          9.94340       -6.76144        7.89227
N         10.03195       -7.42913        6.71156
C         10.98364       -8.39003        6.72810
O         11.19464       -9.11445        5.56649
C         10.36423       -8.75117        4.45833
C         11.02589       -7.66335        3.62761
C         11.80154       -8.67690        7.84446
C         12.83787       -9.77931        7.75963
N         12.31124      -11.08194        8.17717
N         11.72870       -8.01600        9.05150
C         11.46316       -5.76517       11.17456
N         12.75649       -6.06914       11.15694
C         13.44503       -5.04499       11.74571
C         12.66204       -4.10760       12.39489
S         11.04615       -4.52751       12.36285
C         13.42091       -2.87125       12.60153
C         14.26357       -2.92498       11.25260
C         14.81093       -4.42868       11.28841
C         15.89253       -4.72831       12.38329
C         17.22739       -4.00310       12.28517
C         15.26919       -5.00035        9.92531
C         14.23312       -5.06064        8.80337
N         15.07507       -1.65329       11.06870
C         14.68401       -0.76800       12.24208
S         12.93420       -1.19791       12.62778
C         14.85482       -0.95423        9.84968
C         15.36053       -0.96038        8.61425
C         16.38872       -1.71982        7.91415
C         17.60338       -2.06196        8.40223
C         18.59868       -2.70773        7.60021
N         19.39235       -3.23519        6.94686
C         18.04120       -1.64283        9.69157
N         18.47873       -1.24929       10.69847
C         16.01093       -1.69459        6.46743
C         15.07814       -0.66926        6.27737
C         14.64975       -0.13166        7.57703
O         13.85490        0.76899        7.74756
C         14.61391       -0.25624        5.03313
C         15.10863       -0.93383        3.89508
C         15.97151       -2.02458        4.08871
C         16.42133       -2.43496        5.36937
S         16.39751       -2.75302        2.57915
C         15.55452       -1.58326        1.70287
C         14.88885       -0.68536        2.49457
Br        15.53967       -1.52167       -0.16961
H         11.34574       -2.31990       -5.19986
H         10.19106       -3.74696       -4.96340
H         11.73345       -0.68335       -3.15213
H         10.95543       -0.34426       -0.77258
H          9.96442       -0.44497        1.30772
H          8.32716       -0.71345        3.20737
H          6.19977       -1.96169        3.80997
H          2.30676       -4.91884        1.50334
H          2.62460       -7.20996        2.63358
H          3.15330       -6.89636        4.29428
H          4.26724       -7.63608        3.11925
H          6.15486       -6.58527        4.15173
H          6.61262       -3.83829        5.41784
H          7.67078       -6.70064        6.02053
H          8.07914       -3.93774        7.31342
H          9.34591       -8.47482        4.75679
H         10.25494       -9.64753        3.83694
H         11.34333       -6.81804        4.24596
H         10.34535       -7.29914        2.85322
H         11.92406       -8.05580        3.14011
H         13.68140       -9.51585        8.40980
H         13.24967       -9.85227        6.74639
H         11.98174      -10.99247        9.13881
H         13.07729      -11.75217        8.20144
H         14.03551       -3.00055       13.49805
H         13.53634       -2.89853       10.42020
H         15.49411       -4.52919       13.38560
H         16.10643       -5.80728       12.38885
H         17.09145       -2.93007       12.15412
H         17.85201       -4.39262       11.47515
H         17.79324       -4.13153       13.21727
H         16.13000       -4.42859        9.57205
H         15.62325       -6.03069       10.07528
H         13.61900       -4.16126        8.73314
H         13.56875       -5.91904        8.92915
H         14.72523       -5.21308        7.83889
H         14.79009        0.29989       12.01822
H         15.32887       -1.00022       13.09698
H         14.02087       -0.25613        9.99044
H         13.91086        0.57084        4.94440
H         17.08487       -3.28772        5.45058
H         14.29039        0.13029        2.10655
