134

C          8.46646       -6.78034        2.94630
C          8.13610       -5.65536        2.30733
C          8.93101       -4.99735        1.30295
C          8.27044       -4.02637        0.65818
C          6.90448       -3.82172        1.12577
S          6.62903       -4.82152        2.56288
C          5.93935       -3.10302        0.51413
C          6.00239       -2.49815       -0.80536
C          4.78997       -2.42234       -1.38645
C          3.72336       -2.96464       -0.54815
S          4.28243       -2.92868        1.09276
C          2.57283       -3.46150       -1.03732
C          1.41431       -4.14972       -0.48628
C          0.16683       -3.62993       -0.78488
S         -1.11149       -4.70447       -0.44222
C         -0.04365       -5.92101        0.09282
C          1.28380       -5.49558        0.09708
C          2.17394       -6.43669        0.69330
C          3.23202       -5.97383        1.67312
C          2.60449       -5.08258        2.76400
C          1.84829       -7.83852        0.76248
C          2.91798       -8.81613        0.28897
C          4.01805       -9.26220        1.23582
C          0.48207       -8.19673        0.92259
C         -0.20828       -9.39382        1.42339
C         -1.58052       -9.23690        1.33357
S         -2.04903       -7.73696        0.68055
C         -0.43513       -7.20630        0.55676
C          0.36232      -10.50226        2.18281
C         -0.24167      -11.69281        2.44121
C          0.03545      -12.60976        3.54378
C          0.80764      -12.22376        4.62080
S          0.60697      -13.24023        5.96702
C         -0.51663      -14.23472        5.14420
C         -0.60697      -13.92160        3.79779
C         -1.25013      -14.91713        2.98103
C         -0.71318      -15.02226        1.53806
C         -1.54486      -15.39958        0.32120
C         -2.10002      -15.98674        3.60453
C         -2.78587      -16.90162        2.58323
C         -3.92238      -17.88111        2.79398
C         -2.12937      -16.12429        5.05401
C         -2.81095      -16.98028        6.06169
C         -2.32471      -16.78876        7.33844
S         -1.11808      -15.61792        7.41589
C         -1.24422      -15.28216        5.74512
C         -3.84802      -17.97115        5.88439
C         -3.87109      -19.17719        6.47467
C         -4.75374      -20.25442        6.14613
C         -6.03911      -20.24261        6.63711
S         -6.92269      -21.59649        6.14182
C         -5.58767      -22.23935        5.28469
C         -4.44695      -21.43295        5.32423
C         -3.30027      -21.91847        4.59428
C         -1.83493      -21.44649        4.76334
C         -1.41319      -20.02736        5.06188
C         -3.44567      -23.12281        3.73003
C         -2.37168      -23.29365        2.64066
C         -2.59258      -24.12231        1.38299
C         -4.55131      -24.00946        3.92600
C         -4.82787      -25.40204        3.57538
C         -6.11257      -25.78562        3.89793
S         -6.96900      -24.55280        4.68672
C         -5.62086      -23.50036        4.65364
C         -3.87156      -26.33580        3.05264
C         -4.12067      -27.43570        2.32012
C         -3.10539      -28.25653        1.68173
C         -1.93885      -28.71532        2.16289
C         -0.99900      -29.47093        1.36655
C          0.14737      -29.74893        2.00229
C          0.20287      -29.24947        3.36619
S         -1.32705      -28.47711        3.77899
C          1.25450      -29.34056        4.20404
C          2.53706      -29.95356        3.90091
C          3.42038      -29.90167        4.90751
C          2.90523      -29.24775        6.08195
S          1.26836      -28.70456        5.85294
C          3.57558      -29.06555        7.22209
H          9.40743       -7.28838        2.75690
H          7.79347       -7.24677        3.65842
H          9.94946       -5.29146        1.08936
H          8.70967       -3.44392       -0.14020
H          6.92412       -2.20762       -1.28655
H          4.62019       -2.04992       -2.38824
H          2.46330       -3.32450       -2.11693
H         -0.06345       -2.67879       -1.24665
H          3.65938       -6.81163        2.22169
H          4.04816       -5.53015        1.11587
H          1.85054       -5.64094        3.32579
H          2.10072       -4.20505        2.35884
H          3.36787       -4.74805        3.46785
H          3.39663       -8.35910       -0.59101
H          2.42056       -9.71009       -0.10578
H          4.58688       -8.43495        1.66010
H          4.74274       -9.86762        0.68128
H          3.61992       -9.86841        2.05138
H         -2.35432       -9.90578        1.68602
H          1.27769      -10.24977        2.71301
H         -1.14837      -11.93102        1.88949
H          1.41677      -11.33842        4.73824
H         -0.25450      -14.06523        1.27463
H          0.13101      -15.72505        1.59229
H         -1.01411      -15.09944       -0.58969
H         -2.52176      -14.91196        0.31485
H         -1.66973      -16.48340        0.23386
H         -1.98393      -17.47279        2.10255
H         -3.23452      -16.21263        1.86196
H         -3.63933      -18.73344        3.40541
H         -4.21090      -18.30572        1.82360
H         -4.81345      -17.39057        3.19076
H         -2.62100      -17.29076        8.25072
H         -4.64323      -17.72276        5.19011
H         -3.11928      -19.43492        7.22100
H         -6.50909      -19.50123        7.27371
H         -1.39103      -22.10305        5.52297
H         -1.27703      -21.64293        3.84948
H         -2.02702      -19.30886        4.53286
H         -0.38611      -19.85709        4.71955
H         -1.39181      -19.83772        6.13529
H         -1.43330      -23.61138        3.10858
H         -2.23276      -22.28269        2.22826
H         -2.16998      -25.12324        1.49662
H         -2.03087      -23.68093        0.55061
H         -3.64091      -24.18570        1.08432
H         -6.58244      -26.74975        3.75642
H         -2.83645      -26.09022        3.27418
H         -5.14320      -27.69725        2.05384
H         -3.37101      -28.51807        0.65687
H         -1.19988      -29.75859        0.34341
H          0.95786      -30.28889        1.53496
H          2.76631      -30.40979        2.94910
H          4.42167      -30.30570        4.85633
H          4.59540      -29.41284        7.34396
H          3.11968      -28.56243        8.06955
