104

C          8.10551      -12.65225      -15.19916
C          8.64446      -12.75988      -13.98291
C          9.98667      -13.19049      -13.69985
C         10.26147      -13.24934      -12.38917
C          9.14438      -12.87957      -11.53338
S          7.76411      -12.39407      -12.52830
C          9.12278      -12.92732      -10.18670
C         10.20943      -13.34153       -9.31851
C          9.88201      -13.40178       -8.01933
C          8.50756      -13.04073       -7.74512
S          7.70941      -12.53223       -9.21760
C          7.94068      -13.14843       -6.53073
C          6.58055      -12.83573       -6.26205
O          5.86191      -11.85195       -6.93451
C          5.69931      -13.35435       -5.34774
C          5.58270      -14.31401       -4.30003
O          6.45997      -15.04912       -3.85614
N          4.27048      -14.22545       -3.89088
C          3.52357      -13.29581       -4.58870
O          2.35099      -13.01022       -4.44694
C          4.45486      -12.74429       -5.51830
C          4.54576      -11.80761       -6.50417
C          3.57040      -10.93868       -7.03922
C          3.95521       -9.77882       -7.58923
C          2.99904       -8.91928       -8.15336
S          2.18048       -7.66039       -7.29556
C          1.22402       -7.17822       -8.68652
C          1.60656       -7.96200       -9.71186
C          2.55046       -8.91140       -9.41929
N          2.84516       -9.68918      -10.49615
N          2.10925       -9.27761      -11.58317
C          1.36359       -8.23919      -11.09256
C          0.27260       -6.15173       -8.56043
C         -0.12160       -5.38349       -9.59432
C         -1.06808       -4.31480       -9.45472
C         -1.57317       -4.04142       -8.19721
S         -2.80678       -2.91033       -8.21558
C         -2.71109       -2.77482       -9.91514
C         -1.64228       -3.45083      -10.48683
C         -1.38060       -3.16700      -11.88103
C         -0.01437       -3.51676      -12.48564
C          0.12210       -4.85042      -13.21004
C         -2.37105       -2.40394      -12.67708
C         -2.10053       -2.18709      -14.17121
C         -1.32694       -0.91099      -14.50274
C         -3.55513       -1.86670      -12.03428
C         -4.75130       -1.13578      -12.46414
C         -5.59594       -0.80861      -11.41851
S         -4.98657       -1.29042       -9.92348
C         -3.63576       -2.03394      -10.65602
C         -5.12886       -0.74880      -13.79135
C         -5.91637       -1.49659      -14.58247
C         -6.35744       -1.08110      -15.89912
C         -7.45747       -1.52178      -16.53462
C         -8.04935       -1.08387      -17.82418
C         -7.40031       -0.51443      -18.87187
C         -8.04402       -0.19724      -20.09946
N         -8.56195        0.07286      -21.10487
C         -6.00769       -0.22619      -18.86020
N         -4.86759        0.02223      -18.85806
C         -9.48006       -1.53722      -17.81113
C         -9.66565       -2.37964      -16.71442
C         -8.45343       -2.45543      -15.89773
O         -8.35254       -3.13517      -14.89818
C        -10.85933       -3.02301      -16.40447
C        -11.96554       -2.79158      -17.24577
C        -11.81050       -1.91610      -18.33120
C        -10.57710       -1.27232      -18.62636
S        -13.29399       -1.75514      -19.20615
C        -14.09534       -2.82751      -18.17710
C        -13.30086       -3.31556      -17.17565
Br       -15.89670       -3.29928      -18.38153
H          8.66727      -12.89412      -16.09433
H          7.07926      -12.32313      -15.33403
H         10.69211      -13.44674      -14.47786
H         11.22137      -13.56317      -12.00629
H         11.19332      -13.59698       -9.68453
H         10.56712      -13.71015       -7.24127
H          8.52597      -13.53015       -5.69848
H          3.88185      -14.78433       -3.15050
H          2.52752      -11.23802       -6.97962
H          5.00153       -9.48034       -7.60207
H          3.48100      -10.47460      -10.56465
H          0.67745       -7.73503      -11.75819
H         -0.11650       -5.99908       -7.55953
H          0.27489       -5.57605      -10.58217
H         -1.31139       -4.48533       -7.24851
H          0.34015       -2.71118      -13.13958
H          0.72054       -3.50488      -11.66977
H          1.06479       -5.32163      -12.90653
H          0.20264       -4.71158      -14.29433
H         -0.69539       -5.54483      -13.00039
H         -3.03776       -2.18106      -14.73646
H         -1.56703       -3.05210      -14.58040
H         -1.95824       -0.21370      -15.06604
H         -0.47424       -1.14334      -15.15304
H         -0.94848       -0.38930      -13.61907
H         -6.54861       -0.29845      -11.43301
H         -4.81973        0.24209      -14.11620
H         -6.25196       -2.46880      -14.22835
H         -5.71969       -0.32214      -16.34247
H        -10.93119       -3.67176      -15.53518
H        -10.54156       -0.59193      -19.46941
H        -13.63978       -4.01252      -16.41796
