95

C          5.38912        1.12065       -2.27815
C          4.58339        0.29684       -2.95162
C          4.70186       -0.02426       -4.34826
C          3.87917       -1.00946       -4.73203
C          3.05251       -1.54088       -3.65361
S          3.26115       -0.55294       -2.20338
C          2.37220       -2.70335       -3.67916
C          2.38368       -3.67494       -4.75438
C          2.21755       -4.92983       -4.30565
C          2.01318       -4.99709       -2.86393
S          1.55736       -3.41129       -2.29352
C          2.24036       -6.10325       -2.12736
C          2.10590       -6.39925       -0.71801
C          2.01223       -5.40795        0.23810
S          2.11441       -5.98527        1.82309
C          2.28160       -7.59437        1.28867
C          2.15775       -7.73718       -0.09597
C          2.14985       -9.09349       -0.57232
C          1.57839       -9.57802       -1.90383
C          0.89849       -8.69287       -2.93311
C          2.56844      -10.18688        0.32540
C          3.04399      -11.51366       -0.27042
C          1.95412      -12.45615       -0.73751
C          2.61923       -9.98447        1.73870
C          2.77481      -10.86120        2.89164
C          2.85881      -10.17139        4.08266
S          2.65453       -8.50270        3.86467
C          2.49033       -8.67498        2.17048
C          2.82004      -12.29772        2.92412
C          1.82287      -13.08750        2.48130
C          1.84016      -14.52554        2.48624
S          2.91143      -15.39403        3.53347
C          2.45434      -16.90291        2.91212
C          1.46542      -16.81285        1.95665
C          0.88695      -18.00731        1.26507
C          1.08656      -15.43319        1.72806
C          0.11896      -15.06892        0.71780
C         -0.85847      -14.15217        0.82597
C         -1.74084      -13.72505       -0.25091
C         -1.33841      -13.52598       -1.51938
C         -2.15246      -13.01254       -2.58787
S         -3.86770      -13.19788       -2.57952
C         -4.03024      -12.53999       -4.13680
C         -2.82998      -12.11002       -4.64904
O         -2.80830      -11.57233       -5.89145
C         -2.68133      -10.15850       -5.88361
C         -1.72190      -12.40199       -3.77968
N         -0.38902      -12.12252       -3.96049
C          0.40833      -11.93045       -5.04373
S          2.04533      -11.34445       -4.87743
C          2.27854      -11.11682       -6.57166
C          1.21669      -11.67313       -7.18616
C          0.22781      -12.16723       -6.36021
O         -0.79555      -12.82401       -6.97042
C         -0.44113      -12.62145       -8.28836
N         -1.35192      -13.14855       -9.25319
O         -1.17953      -12.77975      -10.42285
O         -2.21978      -13.93530       -8.86512
C          0.75566      -11.92403       -8.48428
H          6.22037        1.62311       -2.76007
H          5.25373        1.29844       -1.21539
H          5.41326        0.45432       -5.00149
H          3.85123       -1.40215       -5.73970
H          2.57554       -3.42215       -5.78702
H          2.24537       -5.80623       -4.93757
H          2.68230       -6.92032       -2.68677
H          1.94025       -4.33974        0.12310
H          2.36486      -10.13897       -2.40953
H          0.78365      -10.27886       -1.61501
H          1.62853       -8.30498       -3.64868
H          0.31471       -7.88701       -2.48877
H          0.20253       -9.28401       -3.53686
H          3.66749      -12.03690        0.46215
H          3.74036      -11.31231       -1.09347
H          1.00489      -12.25207       -0.23952
H          2.24208      -13.49657       -0.56135
H          1.79879      -12.36902       -1.81414
H          2.98863      -10.57377        5.07860
H          3.70452      -12.72682        3.38782
H          0.95602      -12.59797        2.05218
H          2.93358      -17.80026        3.28091
H          1.30878      -18.93827        1.66018
H          1.10421      -17.97283        0.19273
H         -0.19751      -18.04581        1.40650
H          0.21854      -15.60148       -0.22668
H         -1.03513      -13.65594        1.77874
H         -2.75040      -13.47408        0.06838
H         -0.30946      -13.75285       -1.78163
H         -5.00205      -12.48810       -4.60705
H         -2.58329       -9.83705       -6.92643
H         -1.78802       -9.82818       -5.34641
H         -3.57823       -9.68722       -5.46995
H          0.11416      -11.97257       -3.08972
H          3.17634      -10.65982       -6.96784
H          1.20388      -11.66566       -9.43304
