105

C         -5.95368      -11.76320      -18.68433
C         -4.82014      -12.20745      -18.13768
C         -3.87677      -13.08823      -18.77148
C         -2.86946      -13.45599      -17.96679
C         -2.95436      -12.89876      -16.62484
S         -4.32634      -11.78715      -16.52434
C         -2.18088      -13.23234      -15.57336
C         -1.11540      -14.21978      -15.56560
C         -0.74042      -14.59704      -14.33393
C         -1.48066      -13.93289      -13.28280
S         -2.42498      -12.61579      -13.93939
C         -1.49530      -14.33492      -12.00109
C         -2.29103      -13.70132      -11.01966
O         -1.85215      -12.62078      -10.26390
C         -3.57974      -13.93069      -10.61414
C         -4.70069      -14.78828      -10.83807
O         -4.74491      -15.80917      -11.50039
N         -5.70589      -14.24244      -10.06070
C         -5.30770      -13.15797       -9.30483
O         -5.96574      -12.51898       -8.50308
C         -3.94105      -12.96742       -9.67428
C         -2.86706      -12.16132       -9.42912
C         -2.72851      -11.07643       -8.53826
C         -1.84457      -10.10497       -8.80337
C         -1.70164       -9.02838       -7.90166
O         -2.40485       -8.93619       -6.71251
C         -0.90853       -7.91770       -7.94061
C          0.07441       -7.27141       -8.74889
O          0.52142       -7.63691       -9.82041
N          0.40475       -6.14030       -8.02949
C         -0.27327       -6.01272       -6.83491
O         -0.17364       -5.12363       -6.00600
C         -1.12069       -7.16293       -6.78443
C         -2.03916       -7.80442       -5.99787
C         -2.54230       -7.52804       -4.70377
C         -3.47120       -8.34283       -4.16434
C         -3.92682       -8.27358       -2.80774
C         -3.00697       -7.98810       -1.81672
S         -3.72500       -7.82619       -0.29978
C         -5.28224       -8.11889       -0.94297
C         -5.28016       -8.46893       -2.28700
C         -6.54806       -8.89354       -2.83210
C         -6.61788       -9.66164       -4.14976
C         -6.51162      -11.16857       -3.90251
C         -7.79206       -8.74057       -2.06333
C         -9.11745       -9.15894       -2.71716
C         -9.86212       -8.08718       -3.51640
C         -7.72705       -8.27297       -0.70065
C         -8.71708       -8.00722        0.34512
C         -8.13219       -7.63540        1.54018
S         -6.44967       -7.58262        1.46480
C         -6.45695       -8.02922       -0.18185
C        -10.14437       -8.08482        0.22579
C        -11.03314       -7.90517        1.21316
C        -12.44964       -7.97766        0.97695
C        -13.31464       -6.98632        1.23151
C        -14.78511       -6.97505        1.16052
C        -15.53978       -7.67822        0.27461
C        -16.94343       -7.52939        0.21083
N        -18.10026       -7.40678        0.15453
C        -14.98073       -8.55485       -0.69473
N        -14.51635       -9.26976       -1.48200
C        -15.24300       -5.92000        2.11566
C        -14.12351       -5.17454        2.50006
C        -12.90874       -5.68966        1.86219
O        -11.82936       -5.13783        1.85196
C        -14.14862       -4.12569        3.40923
C        -15.39227       -3.78814        3.97998
C        -16.52987       -4.51850        3.59895
C        -16.47574       -5.59757        2.67304
S        -17.93885       -3.91998        4.40610
C        -17.04905       -2.75159        5.23941
C        -15.71283       -2.77542        4.94671
Br       -17.81361       -1.54073        6.44727
H         -6.25074      -12.04739      -19.68742
H         -6.62600      -11.11008      -18.13592
H         -3.99136      -13.42617      -19.79189
H         -2.08627      -14.13069      -18.28045
H         -0.69913      -14.65225      -16.46417
H          0.00335      -15.35658      -14.13545
H         -0.91000      -15.19192      -11.68768
H         -6.62364      -14.64664       -9.99136
H         -3.36191      -11.05316       -7.65354
H         -1.23527      -10.11995       -9.70320
H          1.08143       -5.47055       -8.35152
H         -2.11104       -6.69936       -4.14815
H         -3.87012       -9.14411       -4.77583
H         -1.93894       -7.84394       -1.91695
H         -7.52984       -9.42667       -4.70517
H         -5.82818       -9.35165       -4.82757
H         -7.35040      -11.54740       -3.30709
H         -5.59386      -11.42523       -3.36192
H         -6.51042      -11.71258       -4.85205
H         -9.78082       -9.57491       -1.95808
H         -8.97551      -10.02431       -3.36653
H        -10.29010       -7.30871       -2.87699
H        -10.69884       -8.55542       -4.05200
H         -9.22927       -7.59989       -4.26499
H         -8.60496       -7.37551        2.47539
H        -10.56267       -8.26389       -0.75415
H        -10.73066       -7.65686        2.22542
H        -12.77397       -8.94729        0.60628
H        -13.23467       -3.60258        3.67779
H        -17.39022       -6.13403        2.44397
H        -14.98346       -2.10575        5.38766
