121

C         11.46962       -8.88064       -6.85249
C         10.21957       -8.43301       -6.98116
C          9.78854       -7.35954       -7.83724
C          8.52295       -6.97735       -7.60929
C          7.89323       -7.69902       -6.51556
S          8.90290       -9.07202       -6.04638
C          6.79925       -7.31024       -5.83313
C          5.99946       -6.12368       -6.07445
C          5.24189       -5.76423       -5.02278
C          5.40195       -6.64599       -3.89188
S          6.26800       -8.09172       -4.35178
C          5.01244       -6.37565       -2.62973
C          5.34479       -7.18142       -1.48932
C          6.58350       -7.01974       -0.90190
S          6.86836       -8.17179        0.30749
C          5.33727       -8.89261        0.06858
C          4.55574       -8.23398       -0.87368
C          3.21681       -8.71304       -1.06300
C          2.27510       -7.99570       -2.02505
C          2.30238       -8.57912       -3.43136
C          2.74568       -9.88281       -0.32588
C          1.29074      -10.31400       -0.47910
C          0.39829       -9.64773        0.56199
C          3.62907      -10.58005        0.56905
C          3.50702      -11.78004        1.38333
C          4.64892      -12.07638        2.09462
S          5.86502      -10.92148        1.84999
C          4.89833      -10.04183        0.74804
C          2.39264      -12.67625        1.44984
C          1.45529      -12.63519        2.41167
C          0.34792      -13.54196        2.49426
S         -0.22422      -14.43016        1.12880
C         -1.45846      -15.18684        2.02155
C         -1.49208      -14.78568        3.33939
C         -2.47296      -15.29593        4.34614
C         -0.45032      -13.82722        3.59812
C         -0.21015      -13.25363        4.88663
C         -0.91665      -12.23556        5.40099
C         -0.63004      -11.72344        6.71750
C         -1.57316      -11.26241        7.55490
C         -1.24503      -10.81870        8.87454
S          0.20598       -9.92541        9.14993
C          0.00089       -9.82202       10.85617
C         -1.21246      -10.39811       11.20210
C         -1.93587      -10.94459       10.06668
C         -3.18916      -11.57336       10.16886
C         -3.67356      -11.60580       11.50063
N         -4.99555      -12.21585       11.74551
O         -5.59914      -12.69310       10.77270
O         -5.42965      -12.21593       12.90725
C         -2.95638      -11.07563       12.62720
C         -1.69118      -10.45443       12.52167
C          0.97354       -9.15293       11.66985
C          2.28362       -9.04578       11.36703
C          3.27437       -8.41412       12.20254
C          3.14513       -8.51112       13.57660
S          4.47810       -7.88565       14.39777
C          5.28905       -7.54118       12.93715
C          4.50880       -7.73297       11.79722
C          5.08037       -7.26706       10.55312
C          4.27113       -7.16115        9.25457
C          2.85270       -6.60644        9.33195
C          6.51485       -6.89336       10.50875
C          7.17328       -6.50737        9.18193
C          7.50716       -5.01960        9.09252
C          7.30950       -6.87552       11.71221
C          8.72813       -6.64496       12.01086
C          8.97919       -6.61937       13.37002
S          7.59325       -6.91127       14.29292
C          6.62990       -7.12193       12.89708
C          9.81222       -6.50049       11.08190
C         10.90841       -5.73800       11.25471
H         12.29133       -8.44481       -7.40774
H         11.70904       -9.67983       -6.15638
H         10.44113       -6.89440       -8.56206
H          8.04645       -6.16272       -8.13470
H          6.04905       -5.55216       -6.99051
H          4.62783       -4.87531       -4.99507
H          4.50397       -5.43849       -2.42225
H          7.35788       -6.31077       -1.16335
H          1.24974       -7.98867       -1.64339
H          2.53281       -6.93301       -2.06611
H          1.92378       -9.60494       -3.45437
H          3.31250       -8.60415       -3.84262
H          1.68214       -7.97464       -4.10112
H          1.20089      -11.40033       -0.40967
H          0.91339      -10.09487       -1.48070
H          0.59599      -10.03390        1.56581
H         -0.65538       -9.83521        0.33264
H          0.55040       -8.56379        0.59647
H          4.83067      -12.92248        2.74412
H          2.36415      -13.43450        0.67195
H          1.53595      -11.87540        3.18700
H         -2.10974      -15.89863        1.53289
H         -3.12809      -16.05830        3.91152
H         -3.10441      -14.48054        4.71311
H         -1.95275      -15.74747        5.19727
H          0.57832      -13.71785        5.47686
H         -1.72190      -11.77432        4.83350
H          0.41636      -11.76445        7.01748
H         -2.62006      -11.29532        7.26542
H         -3.73638      -11.98993        9.33198
H         -3.39439      -11.14839       13.62528
H         -1.17345      -10.07480       13.39382
H          0.60371       -8.71547       12.59253
H          2.67147       -9.48239       10.44884
H          2.34655       -8.96637       14.15022
H          4.75136       -6.43599        8.59424
H          4.28766       -8.12850        8.74088
H          2.77496       -5.77225       10.03391
H          2.12259       -7.36288        9.60120
H          2.54367       -6.25150        8.34136
H          6.58811       -6.79276        8.30648
H          8.07632       -7.10799        9.05122
H          6.60228       -4.40517        9.12221
H          8.03546       -4.80763        8.15718
H          8.15076       -4.68277        9.91014
H          9.92465       -6.46645       13.87249
H          9.76618       -7.07806       10.16465
H         11.05542       -5.12740       12.13780
H         11.68223       -5.71038       10.49655
