103

C         13.29677      -10.34883       -3.31103
C         12.83441       -9.11632       -3.52673
C         13.63313       -7.92294       -3.60841
C         12.90280       -6.80137       -3.68411
C         11.46765       -7.03536       -3.62820
S         11.13991       -8.76945       -3.70133
C         10.52184       -6.09985       -3.42177
C         10.74637       -4.67522       -3.24659
C          9.70493       -4.03139       -2.70016
C          8.58489       -4.90224       -2.41525
S          8.82253       -6.46953       -3.14509
C          7.53861       -4.56049       -1.65461
C          6.44969       -5.47193       -1.27457
C          6.61937       -6.24744       -0.11307
C          5.63792       -7.16031        0.30852
C          4.46777       -7.33998       -0.43007
C          4.30510       -6.58670       -1.58095
C          5.27320       -5.64880       -1.99489
N          4.79462       -5.00269       -3.14485
C          5.44730       -3.94171       -3.86415
C          3.49414       -5.38777       -3.43495
O          2.72943       -4.83253       -4.21515
C          3.17569       -6.63594       -2.58693
C          3.11741       -7.91742       -3.45232
C          4.52081       -8.42536       -3.85431
O          5.32957       -8.96043       -3.11156
N          4.67597       -8.18418       -5.21849
C          5.88007       -8.46932       -5.95162
C          3.46911       -7.78447       -5.79863
C          3.19994       -7.49175       -7.12439
C          1.89214       -7.11619       -7.47388
C          0.88756       -7.10894       -6.48017
C          1.17798       -7.39821       -5.13999
C          2.48428       -7.70923       -4.81062
C          1.60867       -6.78540       -8.88479
C          0.68091       -5.89679       -9.28942
C          0.43882       -5.57633      -10.65737
S          1.34747       -6.14644      -12.01035
C          0.39303       -5.29335      -13.17864
C         -0.52826       -4.57864      -12.48670
C         -0.55776       -4.73808      -11.09749
S         -1.85782       -3.83523      -10.21103
C         -2.36663       -3.25248      -11.79824
C         -3.56107       -2.41533      -11.84812
O         -3.93680       -1.72518      -10.89962
C         -4.35776       -2.42321      -13.14861
C         -5.83369       -2.14305      -12.90109
C         -1.55763       -3.67972      -12.85241
F         -1.73741       -3.27858      -14.08402
C          0.66683       -5.47291      -14.56530
C          0.05965       -6.42082      -15.30009
C          0.46057       -6.81872      -16.63398
C         -0.01337       -8.02364      -16.99620
C         -0.83769       -8.64541      -15.97456
S         -1.23877       -7.44323      -14.74016
C         -1.13287       -9.95201      -15.83340
C         -0.62136      -11.06964      -16.60594
C         -0.67370      -12.23589      -15.93691
C         -1.27864      -12.11971      -14.62159
S         -2.05145      -10.56722      -14.46925
C         -1.17021      -13.02281      -13.62937
C         -1.65548      -12.92477      -12.27400
C         -0.99771      -13.50584      -11.20934
F          0.09737      -14.21270      -11.33531
S         -1.72232      -13.19824       -9.70378
C         -2.95727      -12.31318      -10.44608
F         -3.93806      -11.74173       -9.79642
C         -2.83805      -12.25841      -11.81165
H         14.35397      -10.54422       -3.17344
H         12.62229      -11.19732       -3.24214
H         14.71349       -7.94108       -3.58200
H         13.34211       -5.81525       -3.72083
H         11.67958       -4.18735       -3.48725
H          9.70563       -2.97992       -2.45099
H          7.47042       -3.57014       -1.21311
H          7.53359       -6.15929        0.47165
H          5.80727       -7.75098        1.20634
H          3.72769       -8.06752       -0.11657
H          6.47175       -4.21959       -4.11416
H          5.41781       -3.02564       -3.26863
H          4.92607       -3.75840       -4.80878
H          2.22243       -6.45176       -2.08060
H          2.61246       -8.73551       -2.92505
H          6.68128       -8.77032       -5.26928
H          6.19682       -7.57400       -6.49241
H          5.69167       -9.28596       -6.65410
H          3.98767       -7.52493       -7.86894
H         -0.13869       -6.85745       -6.73919
H          0.40061       -7.33749       -4.38599
H          2.24170       -7.30310       -9.60063
H          0.08430       -5.38118       -8.54102
H         -4.27365       -3.40439      -13.62830
H         -3.93880       -1.66779      -13.82139
H         -6.24840       -2.84489      -12.16922
H         -6.40572       -2.23879      -13.82916
H         -5.98359       -1.13005      -12.51319
H          1.49562       -4.90862      -14.98148
H          1.12546       -6.22416      -17.24516
H          0.21552       -8.50087      -17.93863
H         -0.16417      -10.96037      -17.57936
H         -0.26609      -13.16689      -16.30994
H         -0.57060      -13.90900      -13.83783
H         -3.56406      -11.74352      -12.42629
