86

C         -0.09844        0.38933       -2.61532
C          0.31638       -0.05082       -1.42595
C          0.36298        0.71948       -0.21231
C          0.90945        0.05751        0.81805
C          1.32656       -1.29668        0.49083
S          0.88886       -1.67173       -1.18229
C          1.99515       -2.14808        1.29166
C          2.50711       -1.87708        2.62322
C          3.29687       -2.84647        3.11133
C          3.44190       -3.97528        2.22007
S          2.43124       -3.77977        0.80758
C          4.23133       -5.03795        2.44807
C          4.25716       -6.15098        1.55769
S          3.44807       -7.57776        2.03751
C          3.64352       -8.33690        0.49981
C          4.42697       -7.53768       -0.32494
C          4.81774       -6.31006        0.30271
S          5.86159       -5.10514       -0.46635
C          6.63332       -6.10278       -1.65328
O          7.81120       -6.38598       -1.73674
C          5.53596       -6.49513       -2.61538
O          5.32033       -5.97290       -3.68632
S          4.87742       -7.97787       -1.98670
C          3.08996       -9.63744        0.27285
C          1.92229      -10.03251        0.80879
C          1.39845      -11.36844        0.62589
C          0.18313      -11.67399        0.15093
C         -0.25718      -13.02231       -0.11525
C         -1.30733      -13.07621       -0.94674
C         -1.75720      -11.76449       -1.38593
S         -1.00771      -10.51808       -0.38583
C         -2.45940      -11.49835       -2.50270
C         -2.82199      -12.46741       -3.52117
C         -2.99188      -11.91050       -4.72969
C         -2.82656      -10.47052       -4.72017
S         -2.80436       -9.86977       -3.08480
C         -2.63662       -9.73846       -5.82545
C         -2.42578       -8.32456       -5.83733
S         -3.79372       -7.29101       -5.99707
C         -2.83005       -5.88410       -6.16721
C         -1.49208       -6.17980       -5.99282
C         -1.25288       -7.58147       -5.83539
S          0.36960       -8.29145       -5.74868
C          1.36700       -6.89418       -5.46315
O          2.18442       -6.74126       -4.57935
C          1.09809       -5.94928       -6.61693
O          1.68903       -5.88712       -7.67541
S         -0.21309       -4.95777       -6.07588
C         -3.43634       -4.66067       -6.55788
C         -3.97102       -3.81635       -5.66527
C         -4.54004       -2.55209       -6.08509
C         -4.68100       -1.44176       -5.34795
C         -5.28462       -0.23521       -5.85811
C         -5.28607        0.77479       -4.98079
C         -4.65313        0.45905       -3.70976
S         -4.12218       -1.22388       -3.70858
C         -4.47343        1.32426       -2.69220
C         -4.90512        2.71309       -2.68023
C         -4.56465        3.38489       -1.57334
C         -3.84039        2.58040       -0.62656
S         -3.65417        0.93983       -1.17681
C         -3.35790        3.01862        0.53907
H         -0.45829        1.40155       -2.75408
H         -0.09288       -0.25890       -3.48685
H         -0.00943        1.73237       -0.15531
H          1.02035        0.48783        1.80242
H          2.30267       -0.96158        3.15948
H          3.78315       -2.80079        4.07638
H          4.82066       -5.10529        3.35755
H          3.63615      -10.31034       -0.38433
H          1.30730       -9.36164        1.40610
H          2.09368      -12.17196        0.85969
H          0.25359      -13.89049        0.27614
H         -1.73811      -14.00244       -1.29818
H         -2.84410      -13.53528       -3.35455
H         -3.17866      -12.47307       -5.63351
H         -2.59887      -10.23106       -6.79164
H         -3.37135       -4.39493       -7.61019
H         -3.98541       -4.05944       -4.60470
H         -4.87998       -2.51907       -7.11727
H         -5.69241       -0.16245       -6.85692
H         -5.70026        1.74352       -5.21579
H         -5.45467        3.16856       -3.49106
H         -4.80603        4.42487       -1.40065
H         -3.48852        4.04802        0.85489
H         -2.81505        2.35959        1.20985
