81

C         -0.08566      -12.14991       -7.65251
C          1.22123      -11.96471       -7.84618
C          2.11426      -12.88964       -8.49191
C          3.40442      -12.54211       -8.38199
C          3.61352      -11.32585       -7.61284
S          2.05868      -10.54934       -7.28562
C          4.77713      -10.92085       -7.07210
C          6.04107      -11.63850       -7.10997
C          6.84708      -11.33014       -6.08085
C          6.26398      -10.34382       -5.19462
S          4.91494       -9.55416       -5.97306
C          6.61977      -10.18225       -3.91146
C          5.84908       -9.41294       -2.99420
S          4.55388      -10.18317       -2.18540
C          4.10706       -8.76814       -1.31914
C          5.02469       -7.75286       -1.55516
C          5.97830       -8.09836       -2.58698
C          7.01048       -7.12603       -3.08367
C          6.74837       -5.69230       -2.60430
C          6.39383       -5.67999       -1.10829
N          6.35655       -4.30883       -0.58895
C          5.04412       -6.39963       -0.88478
C          2.97513       -8.75981       -0.44576
C          1.88272       -9.50787       -0.67860
C          0.67708       -9.54937        0.15356
C         -0.62951       -9.81743       -0.31855
N         -1.78595       -9.83532        0.43586
C         -1.75204       -9.63891        1.78986
C         -0.50208       -9.40121        2.36446
C          0.70603       -9.35617        1.55499
N          1.73469       -9.12033        2.38724
O          1.19940       -9.02004        3.65561
N         -0.17279       -9.18311        3.64600
C         -0.89188      -10.06917       -1.74737
C         -0.87017      -11.27006       -2.34513
C         -1.20874      -11.49641       -3.73194
C         -1.30410      -12.79418       -4.05891
C         -1.04247      -13.70029       -2.95208
S         -0.48985      -12.77375       -1.54957
C         -1.26113      -15.03107       -2.92474
C         -1.82509      -15.84897       -3.98658
C         -2.19753      -17.07479       -3.58302
C         -1.96664      -17.31504       -2.17130
S         -1.01589      -16.02261       -1.48450
C         -2.47854      -18.35032       -1.48468
C         -2.35545      -18.49699       -0.06728
S         -0.99215      -19.32059        0.59133
C         -1.52250      -19.08258        2.19753
C         -2.73202      -18.41684        2.25503
C         -3.36991      -18.09111        3.49732
N         -3.88837      -17.82444        4.50152
C         -3.21934      -18.10054        0.94619
N         -4.40003      -17.47031        0.71840
H         -0.58612      -13.05123       -7.98527
H         -0.68379      -11.40893       -7.13112
H          1.76848      -13.78541       -8.98724
H          4.21305      -13.13604       -8.78183
H          6.26816      -12.41071       -7.83038
H          7.78427      -11.82792       -5.87310
H          7.42349      -10.77832       -3.48945
H          7.04374       -7.13586       -4.17950
H          7.99336       -7.45153       -2.72209
H          5.92220       -5.25554       -3.18293
H          7.63534       -5.08037       -2.80616
H          7.17470       -6.21852       -0.55521
H          5.73704       -3.73573       -1.16063
H          7.28341       -3.89149       -0.67475
H          4.21817       -5.79747       -1.28566
H          4.87441       -6.51390        0.19316
H          3.01583       -8.08131        0.40142
H          1.83135      -10.12990       -1.56892
H         -2.68409       -9.67747        2.33528
H         -1.17962       -9.18121       -2.30202
H         -1.39281      -10.68493       -4.42280
H         -1.58220      -13.13353       -5.04682
H         -1.97482      -15.49054       -4.99530
H         -2.67714      -17.79996       -4.22655
H         -3.08664      -19.09218       -1.99350
H         -0.92982      -19.44339        3.02409
H         -4.89601      -16.98808        1.46667
H         -4.60827      -17.07221       -0.19415
