105

C         -2.04011       -0.22678        1.10690
C         -2.04366       -1.15135        2.06758
C         -2.03749       -0.88898        3.48355
C         -1.86018       -1.99913        4.22048
C         -1.69847       -3.20442        3.42504
S         -2.01662       -2.85341        1.72345
C         -1.22364       -4.38294        3.86191
C         -0.74354       -4.67081        5.20489
C          0.11505       -5.70062        5.23956
C          0.32503       -6.28695        3.93760
S         -0.86222       -5.73979        2.79550
C          1.37702       -7.03740        3.59888
N          1.73840       -7.50040        2.34490
C          2.91835       -8.08657        1.98459
S          4.13465       -8.47595        3.15305
C          5.25002       -8.91128        1.97216
N          6.59993       -9.23182        2.34259
O          7.35629       -9.56296        1.42156
O          6.92098       -9.13708        3.53501
C          4.70844       -8.91959        0.70989
C          3.35250       -8.44330        0.70676
C          2.54363       -8.36030       -0.48443
C          3.02883       -8.14580       -1.72428
C          2.21894       -8.14532       -2.95769
C          1.17508       -9.06116       -3.14782
C          0.38451       -8.96834       -4.29048
C          0.68938       -8.01924       -5.29379
C          1.76702       -7.15902       -5.15360
C          2.52411       -7.21902       -3.97326
C         -0.30066       -8.10291       -6.34499
C         -1.26736       -9.06307       -5.98933
C         -0.94215       -9.67679       -4.61246
C         -2.04875       -9.19493       -3.61999
C         -1.95816       -9.70334       -2.18321
C         -0.91108      -11.22243       -4.70482
C          0.07651      -11.83979       -5.69201
C         -2.34613       -9.34614       -6.82102
C         -2.47262       -8.65238       -8.02976
C         -1.50917       -7.67879       -8.36944
C         -0.41624       -7.40637       -7.53490
C         -3.65146       -8.92520       -8.86518
C         -3.67192       -8.78632      -10.19509
N         -4.74266       -9.01117      -11.02865
C         -4.81490       -8.86383      -12.38409
S         -3.51701       -8.29180      -13.36873
C         -4.42269       -8.45516      -14.77937
N         -3.81863       -8.14059      -16.03129
O         -3.81730       -9.03949      -16.88328
O         -3.37081       -6.99652      -16.17237
C         -5.69418       -8.92529      -14.57297
C         -5.92832       -9.13139      -13.17775
C         -7.17500       -9.60877      -12.66315
C         -8.19913       -8.80508      -12.33131
C         -9.49265       -9.27373      -11.87350
C        -10.31608      -10.11507      -12.51983
C        -11.60917      -10.53161      -12.03097
C        -12.20450      -11.45136      -12.80463
C        -11.41610      -11.84883      -13.96005
S         -9.97409      -10.84741      -14.06805
C        -11.68855      -12.86021      -14.80692
C        -12.85183      -13.72772      -14.75776
C        -12.80589      -14.74914      -15.62420
C        -11.60697      -14.76477      -16.42107
S        -10.61133      -13.37295      -16.11225
C        -11.26156      -15.72351      -17.28330
H         -2.03646        0.83203        1.33845
H         -2.01619       -0.50725        0.05812
H         -2.12601        0.10103        3.89482
H         -1.79706       -1.98649        5.29859
H         -0.96463       -4.05775        6.06782
H          0.65384       -6.01635        6.12427
H          2.09332       -7.26915        4.38215
H          1.11550       -7.15385        1.61267
H          5.25729       -9.23447       -0.17042
H          1.47300       -8.50964       -0.35463
H          4.08373       -7.93542       -1.87461
H          0.96057       -9.81553       -2.39642
H          2.00527       -6.42403       -5.91572
H          3.34616       -6.51671       -3.84902
H         -3.03359       -9.49554       -4.00205
H         -2.06445       -8.09623       -3.58686
H         -2.07939      -10.78841       -2.12875
H         -2.75545       -9.25185       -1.58398
H         -1.02085       -9.43221       -1.69667
H         -1.91278      -11.57152       -4.99227
H         -0.70988      -11.66181       -3.72187
H          0.07504      -11.34367       -6.66632
H         -0.19330      -12.88885       -5.86513
H          1.09358      -11.82416       -5.29115
H         -3.07447      -10.09770       -6.53222
H         -1.60621       -7.10563       -9.28917
H          0.31009       -6.65433       -7.82507
H         -4.53950       -9.27006       -8.34349
H         -2.77074       -8.47349      -10.71798
H         -5.57720       -9.32969      -10.54077
H         -6.41598       -9.10251      -15.36218
H         -7.28111      -10.68897      -12.58272
H         -8.08890       -7.72374      -12.39092
H         -9.81209       -8.84435      -10.92441
H        -12.04315      -10.14252      -11.11985
H        -13.16748      -11.88132      -12.56929
H        -13.67813      -13.57183      -14.07985
H        -13.57839      -15.49937      -15.71835
H        -11.88956      -16.59152      -17.44881
H        -10.32891      -15.67436      -17.83746
