83

C         11.85307      -10.90619       -2.86821
C         11.54245       -9.63647       -3.13474
C         12.39571       -8.49724       -2.92582
C         11.75986       -7.32651       -3.08199
C         10.34368       -7.47366       -3.38360
S          9.98113       -9.16607       -3.73664
C          9.40422       -6.51806       -3.25819
C          9.61803       -5.15202       -2.81721
C          8.50746       -4.56648       -2.34625
C          7.34443       -5.42633       -2.40276
S          7.67449       -6.82757       -3.39379
C          6.20569       -5.20802       -1.72511
C          5.11412       -6.12559       -1.73260
S          5.03327       -7.35026       -0.51884
C          3.56674       -8.04697       -1.13134
C          3.17550       -7.36202       -2.27217
C          4.03692       -6.23720       -2.58480
C          3.83134       -5.37068       -3.66690
C          2.69383       -5.71550       -4.41745
F          2.38626       -4.94699       -5.47510
C          1.85796       -6.82873       -4.13048
F          0.80132       -7.05810       -4.92722
C          2.06588       -7.71232       -3.05831
C          3.02565       -9.16816       -0.42112
C          1.70447       -9.38693       -0.34135
C          1.11761      -10.53558        0.30852
C         -0.05064      -11.11754       -0.03899
C         -0.90866      -10.71741       -1.21032
C         -0.60498      -12.27109        0.76297
N         -0.07586      -13.52383        0.25030
C          1.07741      -14.09722        0.72724
C          1.77640      -15.12853        0.23688
C          3.00261      -15.64537        0.83185
C          4.01415      -14.96345        1.39963
C          5.14261      -15.57723        2.06734
C          5.82940      -14.72636        2.84986
C          5.28770      -13.37794        2.85010
S          4.13326      -13.22499        1.52905
C          5.49582      -12.41415        3.76650
C          6.30847      -12.49529        4.96655
C          5.96240      -11.59414        5.90356
C          4.84173      -10.76184        5.50204
S          4.62445      -10.88579        3.77443
C          4.07008      -10.06389        6.35987
C          2.85938       -9.38509        6.04682
S          1.65097       -9.87170        4.88166
C          0.59222       -8.54459        5.22674
C          1.13079       -7.85847        6.25176
C          2.35190       -8.31595        6.70068
O          2.90727       -7.64952        7.75530
C          1.92331       -6.69557        7.95549
N          2.15364       -5.78667        9.03921
O          1.24382       -4.98569        9.28218
O          3.23222       -5.86779        9.64707
C          0.83530       -6.76633        7.07750
H         12.81499      -11.18300       -2.45364
H         11.13345      -11.70371       -3.02883
H         13.43354       -8.59055       -2.63897
H         12.23839       -6.37017       -2.92888
H         10.58958       -4.67360       -2.81782
H          8.48018       -3.57147       -1.92121
H          6.10547       -4.32853       -1.09482
H          4.45574       -4.52941       -3.93309
H          1.41621       -8.56214       -2.91180
H          3.72094       -9.85942        0.05281
H          1.00066       -8.67866       -0.76678
H          1.69026      -10.95189        1.13853
H         -0.45800       -9.94849       -1.84254
H         -1.87429      -10.33939       -0.86071
H         -1.09099      -11.58596       -1.85316
H         -1.69902      -12.28786        0.70197
H         -0.36701      -12.15261        1.82792
H         -0.29657      -13.73609       -0.71802
H          1.42415      -13.58666        1.62213
H          1.38135      -15.68758       -0.60739
H          3.06072      -16.73296        0.80377
H          5.37128      -16.62928        1.97321
H          6.67425      -15.02004        3.45392
H          7.08208      -13.23672        5.10390
H          6.42273      -11.53206        6.88025
H          4.36196      -10.04846        7.41018
H         -0.33162       -8.40598        4.68110
H         -0.03161       -6.12076        7.07330
