86

C          6.54742       -0.40795       -3.53933
C          6.74741       -1.19756       -2.48224
C          7.24730       -0.77191       -1.20336
C          7.33062       -1.76529       -0.30793
C          6.90396       -3.05886       -0.81927
S          6.41236       -2.90404       -2.51008
C          6.89182       -4.21881       -0.13437
C          7.28243       -4.40036        1.25381
C          7.27729       -5.67739        1.66049
C          6.88271       -6.59907        0.62684
S          6.40820       -5.76620       -0.82972
C          6.89399       -7.93427        0.73142
N          6.49302       -8.83806       -0.23096
C          6.51167      -10.19868       -0.19232
S          7.60210      -11.07100        0.82477
C          6.93990      -12.56142        0.39200
N          7.41530      -13.77303        1.00505
O          6.86486      -14.82165        0.64259
O          8.31981      -13.69395        1.84660
C          5.93923      -12.44784       -0.54492
C          5.70391      -11.07976       -0.91009
C          4.63079      -10.70886       -1.79651
C          4.63505       -9.71588       -2.70292
C          3.45688       -9.28346       -3.47912
C          3.34071       -7.93210       -3.83187
F          4.29081       -7.06183       -3.45826
C          2.25234       -7.46470       -4.56819
F          2.19439       -6.15896       -4.88981
C          1.22858       -8.31618       -4.99808
C          1.33380       -9.66003       -4.62173
C          2.43428      -10.13792       -3.90137
F          2.49981      -11.45307       -3.64497
F          0.36901      -10.53155       -4.95228
N          0.21677       -7.78732       -5.82836
C         -0.53563       -8.37539       -6.79763
S         -2.13587       -7.74745       -7.03869
C         -2.41973       -8.78826       -8.33110
N         -3.66791       -8.74032       -9.01653
O         -3.61782       -8.47977      -10.22543
O         -4.68448       -8.99247       -8.35923
C         -1.34836       -9.57762       -8.64961
C         -0.24547       -9.34533       -7.75765
C          1.00570      -10.03491       -7.89351
C          1.56019      -10.40744       -9.05550
C          2.78609      -11.17138       -9.12145
C          3.40127      -11.57562      -10.24277
C          4.82640      -12.03628      -10.16322
O          5.42027      -12.47248       -9.20099
C          5.38887      -11.75221      -11.49749
C          6.70811      -11.90049      -11.88538
C          7.06129      -11.47810      -13.17289
C          6.08657      -10.84864      -14.00895
C          6.46388      -10.38626      -15.27632
C          7.76334      -10.58297      -15.73059
C          8.69951      -11.22695      -14.93356
C          8.36307      -11.66380      -13.65614
F          9.94057      -11.43848      -15.39138
F          8.09874      -10.15491      -16.95443
C          4.75555      -10.71841      -13.57687
C          4.39468      -11.23144      -12.34338
C          3.08853      -11.39301      -11.66089
C          1.91502      -11.66011      -12.27855
C          0.79392      -12.20252      -11.57777
N         -0.11719      -12.65016      -11.01501
C          1.74093      -11.52573      -13.68215
N          1.60955      -11.39026      -14.82770
H          6.76090        0.65661       -3.50161
H          6.16246       -0.80307       -4.47284
H          7.52741        0.25163       -0.99813
H          7.69348       -1.61622        0.69858
H          7.55783       -3.58356        1.90483
H          7.54299       -5.99941        2.65803
H          7.22506       -8.39156        1.66011
H          6.02670       -8.36615       -1.00342
H          5.38621      -13.29518       -0.93640
H          3.72715      -11.30605       -1.68010
H          5.53361       -9.12428       -2.87000
H         -0.04148       -6.83824       -5.55711
H         -1.35431      -10.28878       -9.46883
H          1.53216      -10.30764       -6.99128
H          1.07962      -10.10626       -9.97858
H          3.28285      -11.36683       -8.16872
H          7.43164      -12.33534      -11.20062
H          5.75469       -9.88749      -15.93220
H          9.12312      -12.16058      -13.05909
H          4.02899      -10.23118      -14.22159
