123

C         -4.87355       -0.79065        0.73728
C         -3.98588       -0.83275       -0.25848
C         -4.15071       -0.22374       -1.55032
C         -3.14549       -0.49263       -2.39496
C         -2.12087       -1.35962       -1.83352
S         -2.47430       -1.68186       -0.13270
C         -1.09532       -1.91240       -2.50952
C         -0.79830       -1.73415       -3.91863
C          0.11209       -2.59568       -4.39702
C          0.59820       -3.51790       -3.39613
S          0.03187       -3.06717       -1.80586
C          1.33017       -4.60423       -3.67881
C          1.69207       -5.56045       -2.69073
S          0.62297       -6.87282       -2.39461
C          1.62897       -7.57053       -1.17493
C          2.79687       -6.84125       -1.04944
C          2.80975       -5.66752       -1.89227
C          3.85910       -4.74410       -1.92784
C          4.90882       -5.10334       -1.06460
F          5.97444       -4.28873       -1.00873
C          4.91670       -6.27663       -0.26164
F          5.99142       -6.51724        0.50718
C          3.86774       -7.20906       -0.22035
C          1.14356       -8.75760       -0.56821
C          1.44614       -9.12697        0.69087
C          1.02523      -10.42479        1.23574
C          0.77594      -10.59158        2.60613
O          0.94196       -9.50045        3.42110
C          1.33240       -9.77448        4.76456
C          0.31170      -11.82429        3.05498
C          0.14229      -12.89310        2.15531
C          0.50865      -12.77221        0.81454
C          0.94174      -11.53216        0.36792
O          0.36478      -13.86464       -0.00645
C          1.33278      -13.96905       -1.05759
C          1.16167      -15.29129       -1.83436
C          2.14511      -15.35288       -3.02551
C          3.62278      -15.30387       -2.65677
C          1.22499      -16.51195       -0.89385
C          1.02229      -17.84590       -1.60217
C         -0.37004      -14.15180        2.67397
C         -1.66674      -14.32656        2.96637
C         -2.15648      -15.50429        3.60603
S         -3.85702      -15.78503        3.63714
C         -3.68393      -17.24470        4.50025
C         -2.36698      -17.53923        4.77284
C         -1.49469      -16.50930        4.30322
C         -0.02542      -16.57796        4.56004
C          0.37505      -17.52821        5.69246
C         -0.31854      -18.90552        5.47626
O          0.12092      -19.81014        6.51228
C         -0.40352      -21.12664        6.36523
C         -1.86399      -18.74389        5.50397
N          1.85777      -17.62638        5.70715
C          2.68667      -16.53104        5.89476
C          4.01887      -16.44234        5.94023
C          4.69954      -15.18202        6.39553
O          4.25136      -14.05474        6.42345
C          6.02806      -15.62041        6.87768
C          6.98207      -14.85063        7.52356
C          8.10403      -15.50454        8.05582
C          8.20406      -16.92655        7.96411
C          9.27962      -17.57882        8.57873
C         10.26161      -16.84271        9.23041
C         10.20567      -15.45670        9.28012
C          9.12585      -14.78754        8.70058
F         11.28183      -17.48356        9.81535
C          7.23756      -17.66611        7.25878
C          6.17646      -16.99998        6.67032
C          5.05927      -17.45216        5.80682
C          5.16226      -18.37056        4.81734
C          4.20177      -18.46379        3.76421
N          3.47926      -18.53867        2.85848
C          6.32583      -19.17789        4.65966
N          7.28190      -19.82681        4.55108
H         -5.82090       -0.27491        0.63362
H         -4.68115       -1.28908        1.68275
H         -5.01411        0.37333       -1.80827
H         -3.12325       -0.13010       -3.41219
H         -1.29162       -0.99974       -4.53842
H          0.42207       -2.63267       -5.43062
H          1.60640       -4.82965       -4.70439
H          3.89412       -3.84818       -2.52973
H          3.94030       -8.09461        0.39461
H          0.49331       -9.38009       -1.17617
H          2.00532       -8.49453        1.36154
H          1.59643       -8.82122        5.23404
H          2.21652      -10.42042        4.80048
H          0.50689      -10.20332        5.34042
H          0.05581      -11.97610        4.09978
H          1.20346      -11.40292       -0.67488
H          2.33766      -13.90867       -0.62356
H          1.19115      -13.15305       -1.77469
H          0.14715      -15.28317       -2.25814
H          1.93485      -14.51183       -3.69897
H          1.95899      -16.25704       -3.61592
H          3.89108      -14.34733       -2.19817
H          4.23503      -15.41021       -3.55874
H          3.89662      -16.10911       -1.96997
H          0.43525      -16.41772       -0.13828
H          2.17565      -16.53144       -0.34948
H          0.15039      -17.81787       -2.26390
H          0.86038      -18.64055       -0.86641
H          1.90007      -18.12075       -2.19474
H          0.40529      -14.89188        2.80620
H         -2.37657      -13.53845        2.72134
H         -4.56287      -17.81553        4.76631
H          0.33046      -15.57754        4.82555
H          0.47660      -16.89093        3.63415
H          0.05803      -17.12963        6.66576
H          0.00072      -19.31331        4.50655
H          0.04994      -21.76509        7.12664
H         -0.16940      -21.53138        5.37629
H         -1.48611      -21.13627        6.52926
H         -2.20988      -18.69903        6.54457
H         -2.32604      -19.63497        5.06059
H          2.19458      -18.51490        6.07797
H          2.12506      -15.60795        6.05254
H          6.84079      -13.77804        7.62639
H          9.37051      -18.66148        8.55937
H         10.99902      -14.90678        9.77685
H          9.09161      -13.70105        8.75639
H          7.33013      -18.74645        7.18946
