84

C         -5.48077      -14.39729        3.25684
C         -4.19871      -14.27659        3.60513
C         -3.65412      -14.65412        4.88025
C         -2.32821      -14.48948        4.95659
C         -1.72765      -13.94510        3.74526
S         -2.97705      -13.63965        2.53861
C         -0.41503      -13.69921        3.57224
C          0.62104      -14.02249        4.53695
C          1.84462      -13.63426        4.16955
C          1.87059      -12.95220        2.89719
S          0.30023      -12.92086        2.15111
C          2.98761      -12.40695        2.40780
N          3.23456      -11.67428        1.26283
C          4.43109      -11.12714        0.87806
S          5.88050      -11.33305        1.81602
C          6.78406      -10.37825        0.77732
N          8.15754      -10.14400        1.08013
O          8.96373      -10.35554        0.16223
O          8.43128       -9.72178        2.20649
C          6.08395       -9.93507       -0.31190
C          4.70206      -10.33979       -0.24386
C          3.72263       -9.98325       -1.23554
C          3.76652       -8.86420       -1.98055
C          2.81447       -8.49699       -3.00040
C          2.47731       -9.20154       -4.10069
C          3.00422      -10.57094       -4.44852
C          1.53188       -8.61891       -5.12326
N          0.37366       -9.47458       -5.28062
C         -0.52572       -9.75654       -4.28800
C         -1.56648      -10.59246       -4.36976
N         -2.41457      -10.88543       -3.33569
C         -3.54976      -11.63184       -3.35896
S         -3.65954      -13.02072       -4.37947
C         -5.18344      -13.40580       -3.79129
N         -5.81263      -14.58958       -4.27158
O         -6.18223      -15.40243       -3.41805
O         -5.94910      -14.70237       -5.49965
C         -5.65853      -12.52228       -2.85406
C         -4.71119      -11.46249       -2.60035
C         -5.00463      -10.38859       -1.67037
C         -4.24344       -9.31808       -1.38680
C         -4.53946       -8.28937       -0.40954
C         -3.73172       -7.26393       -0.08607
C         -4.06313       -6.27882        0.91109
C         -3.08891       -5.39293        1.14490
C         -1.88683       -5.60366        0.35216
S         -2.14634       -6.94359       -0.76425
C         -0.72980       -4.91985        0.47361
C         -0.46860       -3.85745        1.42966
C          0.79875       -3.42161        1.43420
C          1.63122       -4.09087        0.46950
S          0.72421       -5.23797       -0.48010
C          2.94104       -3.89032        0.31044
H         -6.21903      -14.79978        3.94242
H         -5.82815      -14.10662        2.27071
H         -4.26179      -15.03204        5.69003
H         -1.76700      -14.71740        5.84951
H          0.43602      -14.54105        5.46618
H          2.73200      -13.79424        4.76581
H          3.87711      -12.53859        3.01899
H          2.39216      -11.48171        0.72268
H          6.52335       -9.34090       -1.10278
H          2.90335      -10.67994       -1.39844
H          4.53846       -8.11666       -1.80662
H          2.39479       -7.49698       -2.86423
H          3.68855      -10.98253       -3.70414
H          3.54435      -10.53142       -5.40233
H          2.17975      -11.28411       -4.54765
H          2.04123       -8.52387       -6.08802
H          1.19417       -7.60783       -4.84843
H          0.44983      -10.19129       -5.99819
H         -0.32158       -9.23296       -3.35570
H         -1.80629      -11.06263       -5.31724
H         -2.14387      -10.43657       -2.46818
H         -6.62864      -12.61882       -2.38089
H         -5.96153      -10.46524       -1.15394
H         -3.31282       -9.15132       -1.90277
H         -5.49278       -8.38755        0.10627
H         -5.01656       -6.27687        1.42646
H         -3.18570       -4.59870        1.87331
H         -1.21869       -3.46493        2.10250
H          1.17339       -2.65394        2.09813
H          3.48610       -3.18393        0.92823
H          3.51067       -4.43578       -0.43490
