91

C         -3.81161       -9.90241        2.98110
C         -3.93657       -8.79045        2.25501
C         -5.04607       -7.87380        2.28633
C         -4.81015       -6.73689        1.61213
C         -3.46834       -6.66917        1.04703
S         -2.68895       -8.24946        1.17486
C         -2.82574       -5.55927        0.63469
C         -3.35415       -4.20692        0.62335
C         -2.39911       -3.26500        0.61354
C         -1.05443       -3.81907        0.62446
S         -1.10004       -5.51809        0.24677
C          0.04522       -3.13031        0.97308
C          1.37835       -3.63916        1.16611
C          1.78577       -4.21862        2.36176
O          1.03339       -4.42140        3.45892
C          1.71318       -4.45185        4.71311
S          3.41858       -4.73155        2.24511
C          3.64964       -4.05944        0.69465
O          4.82441       -4.05225        0.03945
C          5.81958       -4.98197        0.45031
C          2.46398       -3.50633        0.23823
C          2.38574       -2.93648       -1.06955
C          2.76785       -1.68602       -1.38995
C          2.74634       -1.31695       -2.76399
S          4.20803       -1.03472       -3.60731
C          3.45051       -1.16661       -5.16868
C          2.07550       -1.33664       -4.99577
C          1.67611       -1.22658       -3.62721
S         -0.00508       -1.25258       -3.08879
C         -0.56945       -2.45229       -4.19515
O         -0.93546       -3.58015       -3.94254
C         -0.64182       -1.73362       -5.52162
O         -1.66229       -1.30122       -6.02293
S          0.92810       -1.79559       -6.27072
C          4.33561       -1.18020       -6.30175
C          3.98485       -0.80380       -7.54139
C          4.81839       -0.95965       -8.71062
C          5.64008        0.06984       -9.14995
O          5.87557        1.24154       -8.53165
C          7.12429        1.87102       -8.82899
S          6.27123       -0.30312      -10.69458
C          5.76612       -1.93700      -10.63283
O          6.21440       -2.68125      -11.65944
C          6.43843       -4.06783      -11.47289
C          4.90838       -2.14886       -9.54689
C          4.25286       -3.41820       -9.34244
C          3.57138       -3.89640       -8.28802
C          3.17824       -5.29566       -8.18790
C          4.03571       -6.33093       -8.18170
C          3.67575       -7.72727       -8.13201
C          4.73116       -8.55944       -8.13964
C          6.01923       -7.88280       -8.15526
S          5.76993       -6.14427       -8.20524
C          7.24822       -8.43221       -8.13479
C          7.58002       -9.84591       -8.13918
C          8.88974      -10.09713       -8.18554
C          9.70284       -8.90423       -8.21140
S          8.73586       -7.46988       -8.10633
C         11.03379       -8.85143       -8.31792
H         -4.57230      -10.21665        3.68533
H         -2.91719      -10.51562        2.90984
H         -5.95594       -8.08040        2.83285
H         -5.51953       -5.92307        1.56446
H         -4.41060       -3.98358        0.67128
H         -2.59109       -2.20223        0.65842
H         -0.07288       -2.07501        1.21361
H          0.99343       -4.73630        5.48549
H          2.10316       -3.45714        4.95578
H          2.51833       -5.19380        4.74477
H          6.69761       -4.83844       -0.18605
H          5.46638       -6.00954        0.31376
H          6.13588       -4.81097        1.48489
H          2.06131       -3.62721       -1.84838
H          3.14515       -0.99343       -0.64477
H          5.34513       -1.56218       -6.14752
H          3.00224       -0.38075       -7.73970
H          7.35673        2.57328       -8.02394
H          7.05679        2.43533       -9.76568
H          7.94817        1.14767       -8.87696
H          7.22324       -4.38721      -12.16597
H          5.53708       -4.62136      -11.75033
H          6.77267       -4.31317      -10.46149
H          4.37285       -4.13436      -10.14515
H          3.32530       -3.30266       -7.42333
H          2.11135       -5.46909       -8.07523
H          2.64595       -8.05719       -8.10374
H          4.63195       -9.63561       -8.11582
H          6.83269      -10.62645       -8.12822
H          9.32642      -11.08777       -8.20708
H         11.63841       -9.74816       -8.40244
H         11.55506       -7.89786       -8.33136
