84

C         10.94786      -17.51109       -7.41693
C          9.92735      -18.13768       -6.82835
C          9.72369      -19.56111       -6.78448
C          8.54272      -19.91196       -6.25425
C          7.71541      -18.77933       -5.86478
S          8.64189      -17.28099       -6.03303
C          6.41520      -18.81402       -5.51205
C          5.55736      -19.98510       -5.46647
C          4.25817      -19.70275       -5.28003
C          3.98916      -18.29134       -5.11870
S          5.47515      -17.37259       -5.13569
C          2.76911      -17.73289       -5.02632
N          2.39929      -16.41602       -4.79196
C          2.82943      -15.61421       -3.77152
S          3.46606      -16.28067       -2.30602
C          3.73909      -14.75969       -1.63614
N          4.31345      -14.65134       -0.32625
O          4.51402      -13.50236        0.09127
O          4.55780      -15.69026        0.31018
C          3.32672      -13.73148       -2.45368
C          2.76497      -14.22628       -3.67746
C          2.13805      -13.38266       -4.65450
C          2.75819      -12.70460       -5.63808
C          2.05921      -11.85704       -6.56143
S          0.38436      -12.10321       -6.95914
C          0.43236      -10.65344       -7.86722
N          1.64074      -10.13390       -7.97318
N          2.57691      -10.83485       -7.22401
C         -0.75239       -9.96002       -8.30887
S         -1.90844       -9.51128       -7.12252
C         -2.75915       -8.40175       -8.15239
C         -2.08465       -8.34888       -9.36777
C         -1.10323       -9.43397       -9.53483
C         -0.49175       -9.72595      -10.77359
C          0.21371      -10.98881      -11.10374
O          0.07146      -12.03903      -10.51137
O          0.89427      -10.78132      -12.26080
C          1.30782      -11.93342      -13.00200
C         -0.84479       -8.79969      -11.79242
C         -1.69011       -7.67568      -11.59252
C         -2.34670       -7.40774      -10.37795
C         -3.94402       -7.70090       -7.63244
S         -4.13612       -7.49968       -5.90712
C         -5.53381       -6.55416       -6.05815
C         -5.86840       -6.36023       -7.37401
C         -5.04551       -7.13007       -8.27200
C         -5.42044       -7.18777       -9.67857
O         -5.16060       -8.12008      -10.42690
C         -6.20333       -6.02229      -10.17497
C         -6.17413       -5.70704      -11.53719
C         -6.88949       -4.60374      -12.01422
C         -7.67106       -3.82072      -11.14882
C         -8.45210       -2.65085      -11.70785
C         -9.75328       -2.34330      -10.97391
C         -7.66799       -4.12708       -9.78048
C         -6.94172       -5.22148       -9.29354
C         -6.93603       -5.48876       -7.83136
O         -7.73358       -4.94562       -7.07791
H         11.73187      -18.05468       -7.93081
H         11.01472      -16.42692       -7.41767
H         10.45494      -20.26410       -7.15846
H          8.22632      -20.93982       -6.15169
H          5.92565      -20.99193       -5.60293
H          3.47899      -20.45148       -5.23975
H          1.88739      -18.35624       -5.15621
H          1.66090      -16.07632       -5.40336
H          3.39182      -12.68354       -2.17782
H          1.06222      -13.28671       -4.52271
H          3.83956      -12.74381       -5.74123
H          1.27625      -12.86334      -12.42994
H          2.32641      -11.76178      -13.35987
H          0.65127      -12.01761      -13.87458
H         -0.46825       -8.95303      -12.80522
H         -1.86707       -7.01209      -12.43989
H         -2.98787       -6.54474      -10.28091
H         -6.02888       -6.14891       -5.18379
H         -5.58696       -6.30833      -12.23010
H         -6.83938       -4.36215      -13.07565
H         -8.70736       -2.86326      -12.75394
H         -7.80954       -1.76249      -11.70522
H        -10.38946       -3.23268      -10.90964
H        -10.31045       -1.56177      -11.49937
H         -9.56772       -1.98212       -9.95711
H         -8.22298       -3.51094       -9.07465
