75

C         13.12817       -6.43208       -5.62409
C         12.90831       -6.47210       -4.30898
C         13.82247       -6.95676       -3.30937
C         13.29372       -6.98957       -2.07572
C         11.90809       -6.54062       -2.01751
S         11.40975       -5.94612       -3.60809
C         11.06837       -6.61517       -0.96479
C         11.35701       -7.16179        0.34915
C         10.26878       -7.32037        1.11954
C          9.03330       -6.91455        0.47652
S          9.36865       -6.13182       -1.04475
C          7.80724       -7.16086        0.96868
C          6.59078       -6.82737        0.29524
C          5.81685       -5.68737        0.36771
N          6.13786       -4.61545        1.14585
C          5.21221       -3.61282        1.05283
C          5.50259       -2.42521        1.92683
C          4.03811       -3.68308        0.26295
C          3.05035       -2.54922        0.21892
N          3.70613       -4.75539       -0.50721
C          4.62617       -5.76035       -0.43924
C          4.48430       -6.96274       -1.11660
S          5.82532       -7.99153       -0.73225
C          3.46165       -7.43845       -2.01030
C          2.77865       -6.56506       -2.76025
C          1.67324       -6.88107       -3.75454
C          0.72501       -7.15214       -4.60744
C         -0.36594       -7.51134       -5.62453
C         -1.20775       -7.83782       -6.41359
C         -2.20127       -8.28986       -7.32982
N         -2.40251       -9.61425       -7.36393
C         -3.35132      -10.03111       -8.21711
C         -4.08446       -9.17372       -9.00307
C         -3.80582       -7.82766       -8.87170
N         -2.84601       -7.35660       -8.05048
C         -4.51568       -6.81096       -9.66263
C         -5.78203       -6.95474      -10.08651
C         -6.47568       -5.96410      -10.88186
C         -7.54603       -6.18799      -11.66046
C         -8.18983       -5.16253      -12.44422
C         -9.15618       -5.62473      -13.24911
C         -9.35924       -7.06238      -13.16761
S         -8.29418       -7.74407      -11.93633
C        -10.20640       -7.78856      -13.92397
C        -11.07637       -7.27158      -14.96790
C        -11.77856       -8.21364      -15.61262
C        -11.52383       -9.54421      -15.12579
S        -10.39149       -9.54224      -13.80413
C        -12.06742      -10.66267      -15.61189
H         14.05720       -6.77673       -6.06189
H         12.36587       -6.06476       -6.30631
H         14.82765       -7.27423       -3.55039
H         13.84112       -7.34298       -1.21387
H         12.35048       -7.44816        0.66687
H         10.29474       -7.74452        2.11466
H          7.70319       -7.67093        1.92147
H          6.57975       -2.22967        1.93979
H          5.17166       -2.63409        2.94876
H          5.01619       -1.51058        1.57888
H          2.19408       -2.79998       -0.41745
H          3.51526       -1.64979       -0.19692
H          2.66663       -2.33625        1.22124
H          3.26301       -8.50356       -2.07874
H          2.99572       -5.50025       -2.72240
H         -3.51493      -11.10207       -8.25584
H         -4.83284       -9.55595       -9.68386
H         -3.93613       -5.92279       -9.89901
H         -6.34795       -7.84735       -9.83023
H         -6.06550       -4.95671      -10.83479
H         -7.89883       -4.12269      -12.38948
H         -9.72037       -4.98225      -13.90887
H        -11.14745       -6.22247      -15.21552
H        -12.46585       -8.00971      -16.42191
H        -12.76534      -10.64198      -16.44148
H        -11.82397      -11.63512      -15.19476
