71

C          7.75318       -5.55480       -8.93011
C          8.29998       -5.44199       -7.71804
C          9.65291       -5.04689       -7.43170
C          9.93997       -5.02910       -6.12106
C          8.82681       -5.41638       -5.26993
S          7.40729       -5.77628       -6.26916
C          8.82603       -5.51096       -3.92666
C          9.92479       -5.24634       -3.01431
C          9.62413       -5.45214       -1.72091
C          8.25885       -5.89075       -1.49668
S          7.41262       -6.00568       -3.01710
C          7.73265       -6.15954       -0.28789
C          6.38033       -6.56554       -0.06423
O          5.42278       -6.74664       -1.06182
C          5.71490       -6.86104        1.09780
C          5.92221       -6.96740        2.50784
O          6.96421       -6.82497        3.12102
N          4.68425       -7.32549        3.00316
C          3.73667       -7.57431        2.02784
O          2.64689       -8.09577        2.17261
C          4.38759       -7.20916        0.80960
C          4.20360       -7.12806       -0.53857
C          3.07546       -7.37729       -1.37813
O          3.21332       -7.84523       -2.68365
C          1.73507       -7.22294       -1.16655
C          0.77909       -6.76676       -0.20670
O          0.98450       -6.19260        0.84680
N         -0.44120       -7.02815       -0.79886
C         -0.35493       -7.52816       -2.08363
O         -1.27382       -7.83102       -2.82141
C          1.05113       -7.63955       -2.31374
C          1.96195       -7.99582       -3.26545
C          1.75622       -8.41569       -4.61324
O          0.63567       -8.05704       -5.34621
C          2.51452       -9.19227       -5.43623
C          3.70851       -9.97321       -5.48077
O          4.49122      -10.21498       -4.57901
N          3.73320      -10.47430       -6.76941
C          2.63530      -10.13945       -7.52925
O          2.35649      -10.50777       -8.65745
C          1.86175       -9.29914       -6.66929
C          0.69573       -8.58402       -6.63788
C         -0.31339       -8.42449       -7.62827
C         -1.10532       -7.34663       -7.72926
C         -2.22184       -7.25149       -8.64453
C         -3.01704       -6.19657       -8.40926
C         -2.57532       -5.37053       -7.29693
S         -0.97609       -5.88716       -6.77889
C         -3.28507       -4.41328       -6.66976
C         -4.65754       -4.03654       -6.95861
C         -5.19277       -3.20432       -6.05361
C         -4.27643       -2.84105       -5.00337
S         -2.69482       -3.50869       -5.26962
C         -4.57266       -2.10458       -3.93011
H          8.31532       -5.34806       -9.83264
H          6.71718       -5.85990       -9.05059
H         10.35853       -4.79269       -8.20973
H         10.91065       -4.75653       -5.73354
H         10.89644       -4.91161       -3.34688
H         10.32530       -5.30020       -0.91158
H          8.36067       -6.05723        0.59438
H          4.53029       -7.55085        3.97067
H         -1.31936       -6.80511       -0.36373
H          4.44577      -11.11158       -7.08592
H         -0.46000       -9.25897       -8.30948
H         -2.41833       -7.99343       -9.40676
H         -3.91831       -5.99961       -8.97161
H         -5.21428       -4.42709       -7.79783
H         -6.21337       -2.85048       -6.08430
H         -5.56984       -1.71396       -3.76552
H         -3.82272       -1.88587       -3.17553
