96

C          3.18919      -11.60673      -12.55992
C          2.62161      -11.17645      -11.43319
C          1.40849      -10.40678      -11.32916
C          1.19960       -9.92140      -10.09541
C          2.33433      -10.15928       -9.21453
S          3.35879      -11.42358       -9.88023
C          2.68561       -9.35305       -8.19734
C          1.86096       -8.31277       -7.61597
C          2.52529       -7.49238       -6.79213
C          3.91111       -7.86115       -6.60624
S          4.32442       -9.27586       -7.54107
C          4.71450       -7.30934       -5.68271
N          5.95240       -7.74656       -5.23609
C          6.28378       -7.96321       -3.92346
S          7.89707       -7.61253       -3.40059
C          7.52642       -7.99354       -1.79869
N          8.49787       -7.81174       -0.77149
O          8.13334       -7.15184        0.21225
O          9.59538       -8.35660       -0.92088
C          6.24428       -8.43872       -1.61786
C          5.52907       -8.45994       -2.85577
C          4.16575       -8.89815       -2.89454
C          3.57737       -9.55335       -3.90263
C          2.15712       -9.81145       -3.93367
C          1.54829      -10.76214       -4.65256
C          0.16056      -11.10809       -4.48078
C         -0.14536      -12.31335       -4.98340
C          0.94668      -12.94160       -5.70498
S          2.33654      -11.86250       -5.73879
C          1.02091      -14.20770       -6.15333
C          0.16989      -15.31672       -5.76214
C          0.86060      -16.47411       -5.70715
C          2.26081      -16.29439       -6.07130
S          2.38879      -14.85443       -7.04536
C          3.29090      -17.00080       -5.56605
C          4.74039      -16.65297       -5.57860
C          5.16866      -15.30077       -5.52138
C          6.51291      -14.92545       -5.46186
C          7.45498      -15.92240       -5.38001
C          7.04939      -17.26574       -5.37401
C          5.71761      -17.65846       -5.47876
C          8.28371      -18.07929       -5.21103
O          8.34892      -19.28749       -5.12439
C          9.42440      -17.12539       -5.15884
C          8.88935      -15.83467       -5.26071
C          9.72414      -14.73057       -5.24058
C         11.10329      -14.94192       -5.13488
C         11.63625      -16.24603       -5.04812
C         10.78440      -17.36208       -5.04943
C         13.09742      -16.41810       -4.99498
C         13.83940      -16.46990       -3.88074
C         15.28060      -16.76913       -3.71497
C         16.29085      -16.47225       -4.57693
C         17.66675      -16.72339       -4.28143
N         18.77587      -16.94871       -4.06088
C         16.05612      -15.81846       -5.82376
N         15.87125      -15.28282       -6.83517
C         15.43191      -17.31321       -2.32892
C         14.23811      -17.09569       -1.63830
C         13.23992      -16.45238       -2.50380
O         12.17909      -15.99851       -2.13370
C         14.00961      -17.50248       -0.32985
C         15.05181      -18.18313        0.33575
C         16.25913      -18.39827       -0.34614
C         16.46779      -17.97518       -1.68403
S         17.39690      -19.23112        0.65363
C         16.30511      -19.31366        1.93764
C         15.09246      -18.74348        1.65800
Br        16.71358      -20.11200        3.58179
H          2.77012      -11.37844      -13.53136
H          4.11821      -12.16927      -12.53323
H          0.76965      -10.20171      -12.17588
H          0.37106       -9.27411       -9.84766
H          0.79700       -8.24073       -7.79447
H          2.05523       -6.68968       -6.24308
H          4.33821       -6.48982       -5.07482
H          6.70398       -7.41426       -5.84009
H          5.83985       -8.74413       -0.65875
H          3.57449       -8.71247       -2.00027
H          4.17494       -9.87690       -4.74992
H          1.55475       -9.18059       -3.28404
H         -0.52111      -10.48986       -3.91417
H         -1.11483      -12.77283       -4.86716
H         -0.84931      -15.19682       -5.42648
H          0.46116      -17.40410       -5.33011
H          3.06231      -17.87229       -4.95545
H          4.45285      -14.48438       -5.49451
H          6.78254      -13.87473       -5.45190
H          5.45805      -18.71243       -5.46108
H          9.32978      -13.72167       -5.30963
H         11.76518      -14.07757       -5.12103
H         11.16053      -18.37648       -4.97768
H         13.52867      -16.54941       -5.98331
H         13.05044      -17.31998        0.14679
H         17.41302      -18.21136       -2.15900
H         14.26216      -18.71459        2.35359
