94

C         10.22822       -7.72448        1.98684
C          9.99572       -6.95737        0.92014
C         10.51797       -5.63456        0.70846
C         10.04254       -5.04791       -0.39988
C          9.08325       -5.86427       -1.13031
S          8.97007       -7.46380       -0.38909
C          8.31239       -5.46061       -2.15898
C          8.30212       -4.13505       -2.75749
C          7.25235       -3.91433       -3.55738
C          6.34900       -5.04186       -3.64926
S          7.05173       -6.45165       -2.89678
C          5.11826       -4.96831       -4.18512
C          4.17423       -6.03795       -4.16250
S          3.19701       -6.26142       -2.75498
C          2.33881       -7.62089       -3.40175
C          2.74168       -7.84010       -4.70742
C          3.80411       -6.94478       -5.13509
C          4.38499       -6.97700       -6.40952
C          3.81699       -7.96826       -7.22777
F          4.29067       -8.09171       -8.47908
C          2.76792       -8.84055       -6.81849
F          2.30664       -9.74167       -7.69972
C          2.17595       -8.81290       -5.54454
C          1.38655       -8.26281       -2.54819
C          1.26614       -9.59732       -2.51266
C          0.34777      -10.30060       -1.64927
C          0.70414      -11.31839       -0.84049
C          2.13254      -11.74250       -0.60823
C         -0.32334      -12.10790       -0.06286
N         -1.21478      -12.75301       -1.00365
C         -2.24228      -13.61749       -0.70530
C         -2.67538      -14.02692        0.49310
C         -3.77748      -14.93409        0.63084
S         -3.79614      -16.02053        1.97544
C         -5.27718      -16.76315        1.50287
C         -5.77468      -16.16100        0.36789
C         -4.92031      -15.11018       -0.12508
N         -5.21642      -14.35156       -1.21603
C         -6.38962      -14.72137       -1.79341
O         -6.78447      -14.05428       -2.94214
C         -5.98056      -12.91249       -3.25544
C         -6.20729      -12.55981       -4.71362
C         -7.22710      -15.75475       -1.30586
O         -8.37997      -16.04545       -2.02114
C         -9.41773      -16.56007       -1.18257
C        -10.64450      -16.83220       -2.03564
N         -6.95840      -16.51851       -0.20736
C         -5.84525      -17.78617        2.30856
C         -5.57322      -19.09828        2.15731
C         -4.60763      -19.67925        1.15314
C         -6.25200      -20.10911        3.05463
N         -7.07627      -20.97488        2.24149
C         -7.79352      -22.04883        2.68226
C         -8.53846      -22.84953        1.91846
H         10.85339       -7.38795        2.80563
H          9.78273       -8.71095        2.07625
H         11.20985       -5.16478        1.39369
H         10.31659       -4.04523       -0.69399
H          9.04963       -3.38427       -2.54265
H          7.06156       -2.97051       -4.04989
H          4.77233       -4.02966       -4.60930
H          5.17807       -6.33110       -6.76124
H          1.36598       -9.48398       -5.29208
H          0.81049       -7.64883       -1.85950
H          1.89404      -10.23574       -3.13095
H         -0.70305      -10.01942       -1.72991
H          2.85967      -11.01956       -0.98904
H          2.32451      -12.70739       -1.08652
H          2.32530      -11.83858        0.46585
H         -0.88244      -11.43868        0.60269
H          0.16519      -12.86497        0.56152
H         -0.86953      -12.81624       -1.96191
H         -2.71303      -13.98000       -1.62208
H         -2.17276      -13.69384        1.38954
H         -4.90845      -13.10352       -3.13104
H         -6.27927      -12.07343       -2.61561
H         -5.87503      -13.38419       -5.35380
H         -5.64794      -11.66023       -4.98653
H         -7.26946      -12.39894       -4.92018
H         -9.67012      -15.81622       -0.41707
H         -9.11733      -17.49874       -0.70218
H        -10.89057      -15.96982       -2.66299
H        -11.50604      -17.07322       -1.40558
H        -10.46153      -17.67778       -2.70718
H         -6.56289      -17.45978        3.05790
H         -5.12108      -20.37093        0.47699
H         -3.81567      -20.23102        1.66996
H         -4.12690      -18.92497        0.52494
H         -6.87800      -19.61659        3.80874
H         -5.49437      -20.69154        3.59199
H         -7.23268      -20.69167        1.27806
H         -7.71838      -22.23172        3.75300
H         -8.61356      -22.70023        0.84708
H         -9.07758      -23.68485        2.35122
