94

C          1.29137       -6.83186        5.62344
C          2.32290       -7.68029        5.65315
C          3.45550       -7.56695        6.53211
C          4.40148       -8.49402        6.31278
C          4.11431       -9.37414        5.18323
S          2.44745       -9.08782        4.63589
C          4.98632      -10.15805        4.50939
C          6.43146      -10.19267        4.68943
C          7.08287      -10.61451        3.59258
C          6.20438      -11.00979        2.50572
S          4.55972      -11.10510        3.05905
C          6.62122      -11.16621        1.23880
N          5.97212      -11.47541        0.04799
C          6.51503      -11.50990       -1.21824
S          8.21141      -11.18595       -1.49223
C          8.08944      -11.44840       -3.14350
N          9.25459      -11.31176       -3.95206
O          9.63318      -12.32740       -4.54824
O          9.77050      -10.18834       -4.01039
C          6.83699      -11.81533       -3.54900
C          5.90447      -11.80668       -2.44387
C          4.52601      -12.13438       -2.70236
C          3.42103      -11.62866       -2.13347
C          2.02786      -11.92361       -2.46790
C          1.44636      -12.43008       -3.57209
C          0.01710      -12.64451       -3.70857
C         -0.30121      -13.55226       -4.64652
C          0.85446      -14.05110       -5.36536
S          2.23343      -12.98894       -5.02408
C          1.00271      -15.24223       -5.97943
C          0.21974      -16.43202       -5.65982
C          1.03849      -17.46935       -5.37684
C          2.43751      -17.10234       -5.55178
S          2.53710      -15.76458       -6.66823
C          3.46447      -17.51787       -4.79561
C          4.76337      -16.84930       -4.73702
C          5.93919      -17.39368       -5.07404
C          7.22080      -16.72504       -5.07057
C          8.18223      -17.40938       -5.72058
C          7.70173      -18.65785       -6.30682
S          6.09003      -19.01499       -5.67269
C          8.27416      -19.42125       -7.26081
C          9.56560      -19.25977       -7.90861
C          9.65430      -19.90709       -9.08635
C          8.41049      -20.55033       -9.46559
S          7.41084      -20.76156       -8.05296
C          8.03221      -20.80703      -10.72994
C          6.69549      -21.16876      -11.20318
C          5.59366      -20.39336      -11.12646
C          4.22988      -20.55390      -11.71210
C          3.59245      -21.70722      -12.03839
C          2.23781      -21.74327      -12.50214
N          1.14074      -21.78510      -12.87946
C          4.19455      -22.97720      -11.91910
N          4.67869      -24.04476      -11.85009
C          3.62228      -19.18138      -11.76425
C          4.46017      -18.30750      -11.07790
C          5.63337      -18.99328      -10.56185
O          6.44759      -18.43637       -9.85872
C          4.26599      -16.93780      -10.95783
C          3.13842      -16.38534      -11.58932
C          2.26302      -17.24539      -12.26816
C          2.48722      -18.64705      -12.36733
S          0.93924      -16.36201      -12.94096
C          1.55262      -14.88904      -12.38681
C          2.71862      -15.01676      -11.68253
Br         0.72227      -13.24150      -12.70971
H          1.24813       -5.97229        6.28539
H          0.45842       -6.95881        4.93882
H          3.51106       -6.79919        7.29249
H          5.29659       -8.56089        6.91520
H          6.94618       -9.80573        5.55930
H          8.16048      -10.60337        3.48592
H          7.67939      -10.98251        1.07915
H          4.99321      -11.72737        0.17501
H          6.58336      -12.04592       -4.57842
H          4.40482      -12.82742       -3.52829
H          3.52601      -10.91179       -1.32028
H          1.35979      -11.65023       -1.64753
H         -0.70934      -12.09967       -3.12271
H         -1.31136      -13.84134       -4.90043
H         -0.85098      -16.43796       -5.51559
H          0.71798      -18.41938       -4.97434
H          3.31449      -18.30409       -4.06081
H          4.72416      -15.80312       -4.43606
H          7.37081      -15.75387       -4.61393
H          9.18837      -17.03431       -5.84909
H         10.37009      -18.67569       -7.48486
H         10.52415      -19.89500       -9.72736
H          8.75441      -20.65964      -11.53259
H          6.68869      -22.10705      -11.75208
H          4.98252      -16.32141      -10.42128
H          1.77275      -19.23867      -12.93034
H          3.26388      -14.18468      -11.25160
