81

C          5.17003       -2.15424        1.52865
C          5.06284       -2.85411        0.39792
C          4.38693       -2.42057       -0.79447
C          4.43993       -3.31681       -1.78856
C          5.19589       -4.51614       -1.45713
S          5.76471       -4.43257        0.21025
C          5.43294       -5.55585       -2.27680
C          4.89390       -5.71983       -3.60939
C          5.14240       -6.92166       -4.13996
C          5.94996       -7.77694       -3.31319
S          6.42687       -6.95070       -1.84917
C          6.23337       -9.07036       -3.53514
N          7.02817       -9.87614       -2.74750
C          6.80994      -11.12251       -2.23926
S          8.18318      -11.89261       -1.50761
C          7.31391      -13.29419       -1.15018
N          7.93996      -14.41993       -0.51017
O          7.20139      -15.37973       -0.24736
O          9.15044      -14.35753       -0.27428
C          5.99416      -13.20044       -1.50815
C          5.68833      -11.94020       -2.12492
C          4.35689      -11.69502       -2.58929
C          3.67403      -10.53927       -2.58730
C          2.40404      -10.34013       -3.24532
C          2.06506      -10.79320       -4.47359
C          2.93562      -11.68373       -5.32800
C          0.75507      -10.38550       -5.10762
N          0.72373       -8.94567       -5.35190
C          1.51606       -8.19439       -6.21202
C          2.63002       -8.55507       -6.85996
C          3.50442       -7.75746       -7.66547
S          5.19125       -8.23428       -7.49604
C          5.79309       -6.86503       -8.31583
C          4.77563       -6.35417       -9.08968
C          3.42891       -6.79879       -8.67632
C          2.27742       -6.31109       -9.34825
S          0.59435       -6.60082       -8.93563
C          2.57685       -5.48435      -10.46119
C          3.89067       -5.11356      -10.86070
C          5.04496       -5.49576      -10.16187
C          7.18277       -6.58425       -8.20145
C          7.68990       -5.49269       -7.58232
C          6.87438       -4.38879       -6.95982
C          9.18469       -5.35252       -7.36595
N          9.87975       -5.33034       -8.63381
C         10.44409       -6.39844       -9.27176
C         11.05779       -6.37303      -10.45470
H          4.74565       -1.16284        1.62638
H          5.69369       -2.55850        2.38946
H          3.89386       -1.46171       -0.87213
H          3.98965       -3.14656       -2.75701
H          4.29428       -4.97642       -4.11410
H          4.75062       -7.22262       -5.09079
H          5.82023       -9.59201       -4.39662
H          7.70548       -9.32311       -2.21990
H          5.26451      -13.98430       -1.33309
H          3.85111      -12.56570       -2.99198
H          4.08279       -9.65290       -2.09734
H          1.72439       -9.66549       -2.72454
H          3.99238      -11.40253       -5.26249
H          2.67214      -11.61956       -6.38832
H          2.81619      -12.73152       -5.03914
H         -0.06067      -10.64854       -4.42249
H          0.55811      -10.93528       -6.03492
H         -0.20435       -8.54864       -5.21541
H          1.12942       -7.18485       -6.28209
H          3.00087       -9.54809       -6.66202
H          0.58164       -5.75760       -7.88998
H          1.75116       -5.10873      -11.06883
H          4.00348       -4.50331      -11.75700
H          6.03792       -5.20344      -10.48201
H          7.85962       -7.35547       -8.56978
H          7.25690       -4.14718       -5.96157
H          5.82000       -4.64799       -6.83197
H          6.93443       -3.48620       -7.57536
H          9.54767       -6.16277       -6.72130
H          9.41292       -4.41889       -6.83740
H          9.92792       -4.43417       -9.10736
H         10.35056       -7.34102       -8.73319
H         11.17038       -5.45413      -11.01756
H         11.46061       -7.28332      -10.88568
