89

C          2.24901       -4.21820       -8.74546
C          2.39907       -3.65726       -7.54389
C          2.70866       -2.27588       -7.29029
C          2.92147       -2.00967       -5.99281
C          2.81133       -3.17692       -5.12866
S          2.26757       -4.56938       -6.07118
C          3.14477       -3.24614       -3.82514
C          3.67264       -2.16656       -3.01073
C          4.14626       -2.56866       -1.82278
C          4.03076       -3.99390       -1.60770
S          3.10371       -4.73927       -2.88149
C          4.60838       -4.63265       -0.58050
C          4.53463       -6.03756       -0.37099
S          3.26737       -6.64803        0.61030
C          3.81001       -8.29040        0.51977
C          4.98274       -8.34971       -0.21164
C          5.36993       -7.06498       -0.76010
C          6.49425       -6.87156       -1.57181
C          7.20766       -8.06651       -1.78274
F          8.30966       -8.00601       -2.54828
C          6.83611       -9.32911       -1.23602
F          7.61654      -10.39002       -1.49639
C          5.70507       -9.53418       -0.42313
C          3.08460       -9.32592        1.18072
C          1.74835       -9.28533        1.30906
C          1.06735      -10.36004        1.92551
S          0.51904      -11.64247        0.94187
C         -0.15197      -12.54785        2.25813
C          0.03744      -11.83853        3.43793
C          0.71741      -10.57374        3.23698
C          1.01244       -9.65989        4.25488
C          0.57698      -10.11311        5.51016
F          0.79845       -9.31712        6.56897
C         -0.07979      -11.35872        5.72343
F         -0.43676      -11.67768        6.97833
C         -0.38347      -12.28321        4.70181
C         -0.76555      -13.82453        2.03275
C         -0.90934      -14.38632        0.81676
C         -1.46322      -15.68920        0.61288
S         -1.32460      -16.89916        1.82853
C         -2.05713      -18.14749        0.89075
C         -2.45491      -17.62465       -0.32502
C         -2.09442      -16.22760       -0.49498
C         -2.36380      -15.49581       -1.66179
C         -3.02548      -16.26746       -2.63543
F         -3.33735      -15.67017       -3.79729
C         -3.38241      -17.63462       -2.46467
F         -4.01615      -18.25855       -3.47106
C         -3.11159      -18.38183       -1.30458
C         -2.21179      -19.46388        1.42989
C         -1.39584      -19.95821        2.37340
C         -1.56123      -21.26801        2.96248
C         -1.07617      -21.65349        4.14844
C         -1.26611      -22.97423        4.69234
C         -0.72123      -23.13729        5.90653
C         -0.04526      -21.95699        6.41997
S         -0.19203      -20.63674        5.26286
C          0.61026      -21.86742        7.59482
C          0.77616      -22.94327        8.55747
C          1.49990      -22.60907        9.63429
C          1.95466      -21.24370        9.61131
S          1.41929      -20.40899        8.18051
C          2.69934      -20.66426       10.55597
H          2.35443       -3.64801       -9.66060
H          2.03333       -5.27838       -8.84444
H          2.77836       -1.54097       -8.08021
H          3.18536       -1.02572       -5.63254
H          3.71477       -1.13803       -3.33946
H          4.60278       -1.90723       -1.09902
H          5.18346       -4.07194        0.15077
H          6.80518       -5.93420       -2.01059
H          5.46398      -10.51193       -0.03049
H          3.63912      -10.19066        1.54068
H          1.14106       -8.47138        0.92457
H          1.51220       -8.70886        4.13018
H         -0.88437      -13.21515        4.92249
H         -1.11533      -14.35152        2.91562
H         -0.58969      -13.86913       -0.08238
H         -2.11651      -14.45823       -1.83880
H         -3.39375      -19.42209       -1.22459
H         -3.04123      -20.06451        1.06569
H         -0.55467      -19.37325        2.74455
H         -2.13725      -21.97949        2.37120
H         -1.80493      -23.74911        4.16622
H         -0.77721      -24.06887        6.44672
H          0.36410      -23.93171        8.41835
H          1.72911      -23.28802       10.44353
H          3.02323      -21.20830       11.43640
H          3.00852      -19.62677       10.47437
