68

C          5.66675       -9.01327       -9.12838
C          5.49029       -8.96261       -7.80660
C          4.24359       -9.18317       -7.12670
C          4.32453       -9.00099       -5.80136
C          5.65190       -8.62679       -5.33619
S          6.77855       -8.59695       -6.69500
C          5.98035       -8.29330       -4.07323
C          5.05573       -8.19108       -2.95885
C          5.58232       -7.61330       -1.87295
C          6.97136       -7.24587       -2.03041
S          7.60212       -7.83859       -3.54761
C          7.71319       -6.51066       -1.19028
C          7.20815       -5.86807       -0.00258
C          6.29817       -4.86087        0.11750
C          5.83407       -4.80835        1.52767
C          6.43310       -5.62229        2.40160
S          7.68099       -6.58652        1.58630
O          8.81086       -5.46900        1.86031
O          4.73860       -4.07747        1.90911
C          5.74350       -4.13762       -1.04661
C          6.26695       -3.72769       -2.24683
C          5.14312       -3.38967       -3.17464
C          3.91058       -3.31811       -2.67855
S          3.96539       -3.63297       -0.95667
O          3.42211       -5.14003       -1.08408
O          5.32990       -3.32870       -4.53622
C          7.69154       -3.67490       -2.66265
C          8.84560       -3.31265       -2.03670
C         10.02268       -3.37799       -2.93198
C          9.82533       -3.82093       -4.17169
S          8.11370       -4.19264       -4.39782
O          7.82894       -2.73016       -5.01630
O         11.25884       -2.96291       -2.49666
C          9.03219       -2.97613       -0.63558
C          9.28143       -1.77295       -0.09200
C          9.95336       -1.64186        1.18070
C         10.11888       -0.37348        1.56942
C          9.47112        0.58345        0.68867
S          9.01835       -0.21534       -0.82415
C          9.12824        1.83514        1.04921
C          9.39304        2.43178        2.35049
C          8.66593        3.52804        2.60130
C          7.80960        3.89474        1.50391
S          8.10929        2.91116        0.09521
C          6.86951        4.84124        1.54968
H          4.84839       -9.23832       -9.80299
H          6.63757       -8.82066       -9.57509
H          3.33675       -9.46247       -7.64402
H          3.47754       -9.12384       -5.14292
H          4.02558       -8.50849       -3.00468
H          5.02864       -7.43095       -0.96670
H          8.76901       -6.34312       -1.39404
H          6.10932       -5.72409        3.42896
H          8.84834       -5.23346        2.81885
H          4.01825       -4.34473        1.31134
H          3.03587       -3.13885       -3.29069
H          2.47586       -5.15149       -1.36872
H          5.61064       -4.23257       -4.79705
H         10.60686       -3.89103       -4.91579
H          6.87202       -2.47816       -4.91602
H         11.11734       -2.27301       -1.82670
H          9.27619       -3.85485       -0.04405
H         10.34432       -2.49118        1.72449
H         10.63417       -0.09914        2.47823
H         10.07170        2.00669        3.07546
H          8.69100        4.07054        3.53596
H          6.68504        5.41163        2.45361
H          6.23948        5.05305        0.69197
