91

C         19.04165      -12.99659      -19.58124
C         18.97005      -12.23443      -18.48925
C         19.13475      -10.80650      -18.45525
C         18.99557      -10.28340      -17.22993
C         18.70790      -11.26687      -16.19790
S         18.65176      -12.88518      -16.90796
C         18.49909      -11.00747      -14.89322
C         18.51742       -9.69776      -14.26224
C         18.20315       -9.71533      -12.95445
C         17.91741      -11.03780      -12.45709
S         18.13582      -12.24503      -13.69672
C         17.48271      -11.28248      -11.21492
C         17.16598      -12.58824      -10.67213
C         16.37700      -12.83266       -9.61821
C         16.15245      -14.15623       -9.09390
C         15.50104      -14.15146       -7.92633
C         15.18830      -12.81658       -7.43502
S         15.50133      -11.63248       -8.69427
C         14.84917      -12.51608       -6.16771
C         14.84857      -13.47725       -5.08156
C         14.69308      -12.93437       -3.87467
C         14.42405      -11.51746       -3.88642
S         14.53021      -10.90083       -5.53711
C         14.12001      -10.70434       -2.85693
C         13.89904      -10.99767       -1.41322
C         14.27221      -10.08339       -0.39397
C         14.05073      -10.35265        1.01010
N         14.43573       -9.45507        1.94770
C         14.98314       -8.28026        1.54092
C         15.19456       -8.01649        0.20900
N         14.85632       -8.91600       -0.75680
C         15.77979       -6.79146       -0.25297
N         16.25746       -5.79263       -0.60433
C         15.31344       -7.34864        2.58252
N         15.59455       -6.58579        3.40658
C         13.43095      -11.53040        1.45828
C         12.95441      -12.43224        0.47174
C         13.18522      -12.15850       -0.99213
N         12.62727      -13.10278       -1.76921
S         11.92326      -14.22340       -0.78481
N         12.27997      -13.57458        0.69169
C         13.23250      -11.87372        2.88343
C         12.17712      -11.51145        3.62939
C         11.96818      -11.85118        5.02021
C         10.77294      -11.46739        5.50236
C          9.93180      -10.81693        4.51212
S         10.85084      -10.57388        3.01745
C          8.62352      -10.50942        4.60536
C          7.71364      -10.72600        5.71917
C          6.41650      -10.65377        5.36901
C          6.22807      -10.40674        3.95558
S          7.71769       -9.88823        3.22509
C          5.10474      -10.62370        3.25670
C          5.04814      -10.63535        1.80359
C          4.32948       -9.83202        1.01038
C          4.30922       -9.94449       -0.42834
C          3.52628       -9.03637       -1.02506
C          2.88696       -8.11280       -0.10212
S          3.31752       -8.52736        1.56034
C          2.08671       -7.08351       -0.44058
C          1.68689       -6.72059       -1.79057
C          0.89269       -5.64348       -1.85411
C          0.61106       -5.06911       -0.56471
S          1.37186       -5.96051        0.72031
C         -0.13674       -3.98480       -0.34674
H         19.23864      -12.57145      -20.55913
H         18.90167      -14.07197      -19.52722
H         19.34604      -10.22219      -19.34013
H         19.08321       -9.22614      -17.03050
H         18.73831       -8.78377      -14.79556
H         18.14601       -8.82902      -12.34368
H         17.34432      -10.43796      -10.54205
H         17.64253      -13.43750      -11.16071
H         16.50690      -15.05233       -9.58540
H         15.26513      -15.05724       -7.38798
H         15.04347      -14.52898       -5.22699
H         14.76691      -13.52357       -2.97349
H         14.01171       -9.64172       -3.08385
H         14.02175      -12.48289        3.31334
H         12.71014      -12.37674        5.60736
H         10.45245      -11.65573        6.51850
H          8.04548      -10.96012        6.72106
H          5.58942      -10.83347        6.04441
H          4.19782      -10.94658        3.76124
H          5.68610      -11.39034        1.34234
H          4.86764      -10.70058       -0.96391
H          3.39623       -8.99373       -2.09698
H          1.99378       -7.26993       -2.66876
H          0.49752       -5.23556       -2.77384
H         -0.60348       -3.44291       -1.16161
H         -0.30008       -3.60709        0.65783
