114

C          2.99937       -9.11944       -6.99283
C          4.19976       -8.70952       -6.57622
C          5.45681       -9.23400       -7.03473
C          6.51678       -8.62126       -6.49110
C          6.17530       -7.57838       -5.53469
S          4.41781       -7.45296       -5.39007
C          7.05574       -6.82696       -4.84415
C          8.49893       -6.83685       -5.01150
C          9.16078       -6.06605       -4.13747
C          8.29948       -5.42977       -3.16998
S          6.61387       -5.69051       -3.57341
C          8.74547       -4.77373       -2.08574
C          7.91357       -4.30025       -0.99252
C          7.27166       -5.09730       -0.12277
C          6.35876       -4.64626        0.90088
C          5.92004       -5.62924        1.70237
C          6.57432       -6.90205        1.44916
S          7.45855       -6.83511       -0.06417
C          6.69938       -7.89651        2.34671
C          6.06670       -7.96346        3.65117
C          6.81750       -8.60504        4.56242
C          8.08331       -9.03171        4.00485
S          7.98692       -9.10157        2.26608
C          9.21113       -9.13255        4.72858
C         10.56154       -9.21583        4.15964
C         11.07977      -10.49060        3.87542
C         12.32522      -10.64273        3.24950
C         13.07738       -9.52993        2.89105
C         12.58711       -8.26670        3.19533
C         11.33705       -8.10341        3.81003
N         11.07429       -6.72407        3.89381
C          9.94870       -6.10413        4.53779
C         12.02798       -5.97537        3.17787
O         11.97147       -4.79029        2.87075
C         13.21165       -6.92697        2.87198
C         14.47859       -6.51848        3.67956
C         15.38813       -7.73027        3.98481
O         15.98189       -8.40866        3.14913
N         15.37986       -7.92963        5.36948
C         15.95983       -9.05936        6.04791
C         14.68238       -6.90977        6.02068
C         14.43281       -6.74750        7.37248
C         13.64699       -5.65702        7.77528
C         13.26185       -4.69180        6.82245
C         13.57429       -4.84334        5.47516
C         14.21409       -6.00351        5.07774
C         13.25156       -5.53798        9.18608
C         12.10197       -4.96151        9.56996
C         11.70107       -4.82422       10.94985
C         11.45223       -3.65318       11.55567
C         10.97358       -3.52350       12.90817
C         10.78584       -2.25179       13.29350
C         11.12373       -1.26922       12.27595
S         11.67628       -2.08750       10.81435
C         11.03189        0.06983       12.39677
C         10.52942        0.79513       13.54959
C         10.53383        2.12747       13.40277
C         11.05173        2.56747       12.12841
S         11.51131        1.20711       11.13554
C         11.18674        3.85309       11.77182
C         11.73400        4.31614       10.51105
C         12.80702        5.10788       10.37075
C         13.33972        5.51588        9.09427
C         14.47100        6.22626        9.18562
C         14.94571        6.40701       10.54915
S         13.77433        5.73301       11.68430
C         16.13457        6.93195       10.90443
C         17.15154        7.42755        9.99097
C         18.33334        7.67092       10.57391
C         18.32774        7.41012       11.98988
S         16.73398        7.00890       12.56401
C         19.40093        7.43079       12.78346
H          2.89388       -9.91147       -7.72613
H          2.08587       -8.67206       -6.61392
H          5.52754      -10.04888       -7.74137
H          7.53385       -8.90905       -6.71273
H          8.99956       -7.40636       -5.78036
H         10.23683       -5.96716       -4.11433
H          9.81368       -4.62546       -1.94178
H          7.83672       -3.22059       -0.90109
H          6.06566       -3.61080        0.99992
H          5.24945       -5.46116        2.53227
H          5.11704       -7.49870        3.87061
H          6.56372       -8.70452        5.60462
H          9.18443       -9.01004        5.80888
H         10.49684      -11.38160        4.10105
H         12.69764      -11.63842        3.02065
H         14.02189       -9.65996        2.37149
H          9.65780       -6.65540        5.43493
H          9.11854       -6.02526        3.83442
H         10.22562       -5.09504        4.86202
H         13.40756       -6.88270        1.79495
H         15.07071       -5.77254        3.13551
H         16.47357       -9.71409        5.33860
H         15.15839       -9.62740        6.53067
H         16.67287       -8.71542        6.80266
H         14.79723       -7.46608        8.09703
H         12.68941       -3.81337        7.11335
H         13.26031       -4.08668        4.76275
H         13.93601       -5.95261        9.91936
H         11.40629       -4.54488        8.84458
H         11.56504       -5.75671       11.49151
H         10.77690       -4.37873       13.53966
H         10.42593       -1.98745       14.27594
H         10.16870        0.30894       14.44436
H         10.18997        2.81880       14.15993
H         10.89394        4.63809       12.46639
H         11.23025        3.93961        9.62222
H         12.87244        5.24963        8.15609
H         15.00198        6.59208        8.31964
H         16.98663        7.55591        8.93118
H         19.21304        8.00735       10.04355
H         20.38929        7.64998       12.39533
H         19.32316        7.20222       13.84189
