105

C          6.43576       -1.54234        8.83416
C          7.46176       -2.38886        8.72739
C          8.82378       -2.09424        9.07927
C          9.64769       -3.13921        8.92467
C          8.99222       -4.34502        8.43747
S          7.28219       -4.01804        8.14061
C          9.57911       -5.54442        8.25607
C         10.97096       -5.85466        8.52775
C         11.30011       -7.13407        8.30908
C         10.19722       -7.94517        7.85277
S          8.74618       -6.98763        7.67367
C         10.30196       -9.25499        7.58547
C          9.23173      -10.10194        7.09882
C          9.26745      -10.79260        5.95058
C          8.14170      -11.51301        5.40660
C          8.27924      -11.78815        4.10193
C          9.52154      -11.28529        3.53393
S         10.61273      -10.81113        4.83277
C          9.74683      -11.03333        2.23061
C          8.75589      -11.15270        1.17776
C          9.07156      -10.47510        0.06684
C         10.37150       -9.85091        0.11769
S         11.21006      -10.28726        1.59112
C         10.83843       -9.05669       -0.85780
C         12.15932       -8.56559       -0.84735
S         13.34767       -9.27334       -1.86753
C         14.57842       -8.22265       -1.21409
C         14.07478       -7.63525       -0.05907
C         12.71118       -7.38533       -0.39924
C         12.08340       -6.02857       -0.24596
C         11.51052       -5.52332       -1.59028
F         11.89986       -6.26168       -2.65634
F         10.15698       -5.54820       -1.56866
F         11.88143       -4.24842       -1.85640
C         13.17136       -5.03912        0.26136
C         13.90395       -5.62869        1.46739
C         14.73543       -6.88717        1.08545
C         14.92167       -7.76293        2.35271
F         14.66811       -9.06595        2.13716
F         16.20099       -7.68349        2.79764
F         14.13022       -7.38506        3.38424
C         15.75042       -8.04130       -1.98504
C         16.95617       -8.59820       -1.81052
C         17.49556       -9.47882       -0.75595
C         18.88062       -9.53625       -0.48181
C         19.40492      -10.40364        0.53760
N         20.72404      -10.69266        0.56265
C         21.55372       -9.95663       -0.20293
C         21.08023       -8.95180       -1.00676
N         19.73527       -8.78428       -1.20793
C         21.95651       -7.97821       -1.58827
N         22.70613       -7.19265       -1.97552
C         22.94731      -10.28116       -0.10340
N         24.07225      -10.55286       -0.02904
C         18.59920      -10.97404        1.53581
C         17.22657      -11.05776        1.20937
C         16.68838      -10.37823       -0.00855
N         15.44773      -10.79537       -0.28131
S         14.91714      -11.72749        0.96813
N         16.28905      -11.73978        1.89068
C         19.06949      -11.64562        2.77034
C         20.12793      -11.32619        3.54034
C         20.77837      -12.08627        4.64288
C         20.20474      -12.99336        5.46927
C         20.91966      -13.65967        6.50664
N         21.49537      -14.20288        7.35016
C         18.83713      -13.36574        5.38034
N         17.72848      -13.70411        5.31026
C         22.21554      -11.65186        4.65715
C         22.37708      -10.64154        3.71214
C         21.06587      -10.19452        3.23496
O         20.81738       -9.09594        2.77959
C         23.61018      -10.18195        3.26373
C         24.76820      -10.75824        3.82606
C         24.61264      -11.62041        4.91957
C         23.34023      -12.07144        5.35849
S         26.14655      -12.02545        5.60330
C         26.97754      -11.25033        4.35409
C         26.15077      -10.63687        3.45124
Br        28.84635      -11.22586        4.22907
H          6.56674       -0.53381        9.21082
H          5.43017       -1.83907        8.55279
H          9.14032       -1.12370        9.43522
H         10.70318       -3.08607        9.14776
H         11.68305       -5.12615        8.88625
H         12.29240       -7.53584        8.46012
H         11.26664       -9.74665        7.69741
H          8.31545      -10.08588        7.68604
H          7.25818      -11.74583        5.98430
H          7.51622      -12.28151        3.51796
H          7.81343      -11.66489        1.30098
H          8.42771      -10.39256       -0.79665
H         10.22616       -8.81936       -1.72014
H         11.27892       -6.09315        0.49449
H         12.70144       -4.08897        0.53636
H         13.90772       -4.82337       -0.52557
H         13.13144       -5.87663        2.20812
H         14.55445       -4.88289        1.93702
H         15.72711       -6.55709        0.75158
H         15.61070       -7.40080       -2.85922
H         17.69213       -8.31748       -2.56905
H         18.45804      -12.51261        3.00582
H         23.68515       -9.44749        2.47016
H         23.30347      -12.75113        6.19947
H         26.49978      -10.11409        2.56749
