110

C         11.42107       -5.64857       -8.30101
C         10.77792       -4.74206       -7.55858
C         11.37364       -3.66982       -6.81308
C         10.49325       -2.99440       -6.06021
C          9.13325       -3.50823       -6.14113
S          9.05425       -4.78269       -7.36702
C          8.08499       -3.17542       -5.36351
C          8.06401       -2.21390       -4.27270
C          6.98544       -2.32755       -3.48083
C          6.08111       -3.38416       -3.88709
S          6.52146       -3.98736       -5.46156
C          5.08282       -3.86724       -3.13017
C          4.24919       -4.95453       -3.52891
S          2.80284       -4.61963       -4.39555
C          2.36531       -6.26369       -4.45201
C          3.26332       -7.07689       -3.79292
C          4.38981       -6.31929       -3.30166
C          5.53515       -7.00363       -2.60902
C          5.62589       -8.47756       -3.02487
C          4.28885       -9.18821       -2.80198
C          3.13693       -8.58259       -3.63428
C          1.80087       -8.97715       -2.99956
O          0.94106       -8.20347       -2.59476
O          1.70751      -10.35380       -2.97483
C          0.48242      -10.77260       -2.46862
C          0.38645      -11.52068       -1.36940
C         -0.84874      -11.96280       -0.82289
C         -1.03333      -13.07710       -0.03260
C         -2.32396      -13.16992        0.59305
C         -3.15124      -12.14508        0.13101
S         -2.33488      -11.15355       -1.02820
C         -4.47578      -11.97879        0.58723
O         -5.23534      -11.03950       -0.10294
C         -6.13476      -10.22783        0.63385
C         -4.96373      -12.79805        1.63421
C         -4.14102      -13.83210        2.08253
C         -2.86352      -14.06952        1.54065
O         -2.24352      -15.24436        1.95269
C         -0.84676      -15.20713        2.19156
S         -4.88678      -14.73296        3.35527
C         -6.24114      -13.70612        3.41880
C         -6.19863      -12.81042        2.37187
C         -7.26862      -13.80004        4.43520
S         -7.66585      -15.30173        5.17089
C         -8.88879      -14.60461        6.12368
C         -9.03830      -13.25512        5.88393
C         -8.04742      -12.76940        4.95509
C         -7.95723      -11.30164        4.62498
C         -8.63832      -10.42874        5.68331
C        -10.05579      -10.92819        5.96403
C        -10.05369      -12.35044        6.54546
C        -11.46254      -12.92347        6.44299
O        -11.92206      -13.54137        5.49159
O        -12.12620      -12.62986        7.61221
C        -13.18555      -13.49383        7.84919
C        -13.22305      -14.20893        8.97737
C        -14.26349      -15.15741        9.29165
C        -14.14122      -16.20422       10.12076
C        -15.21940      -17.11133       10.42679
C        -14.86041      -18.12827       11.22204
C        -13.45692      -18.11697       11.60535
S        -12.66444      -16.69874       10.91624
C        -12.83404      -19.03809       12.36559
C        -13.45460      -20.20482       12.96295
C        -12.61637      -20.96810       13.68253
C        -11.27401      -20.46703       13.69796
S        -11.11532      -18.99724       12.77506
C        -10.24071      -21.03413       14.33329
H         12.49725       -5.64096       -8.40690
H         10.87676       -6.43917       -8.81151
H         12.43277       -3.44686       -6.85312
H         10.76850       -2.16976       -5.41716
H          8.85581       -1.50058       -4.09524
H          6.81229       -1.71837       -2.60288
H          4.89264       -3.44801       -2.14781
H          1.44279       -6.55391       -4.93700
H          5.37975       -6.93971       -1.52491
H          6.48432       -6.50783       -2.83820
H          6.41029       -8.97796       -2.44559
H          5.90713       -8.55633       -4.08305
H          4.04365       -9.15527       -1.73153
H          4.39744      -10.25171       -3.05246
H          3.15754       -9.01266       -4.64512
H         -0.34765      -10.42849       -3.07677
H          1.29711      -11.80964       -0.84674
H         -0.20941      -13.74873        0.14993
H         -7.09493      -10.73617        0.74505
H         -6.34107       -9.33072        0.04107
H         -5.72478       -9.91053        1.59747
H         -0.51552      -14.25659        2.62127
H         -0.30867      -15.44855        1.27150
H         -0.60367      -16.00270        2.90220
H         -7.01360      -12.12929        2.19908
H         -9.45777      -15.22972        6.79959
H         -8.44661      -11.12735        3.65913
H         -6.91046      -10.99042        4.53592
H         -8.67099       -9.39053        5.33385
H         -8.05332      -10.43790        6.61202
H        -10.63842      -10.89553        5.03283
H        -10.55746      -10.24738        6.66236
H         -9.77389      -12.30150        7.60774
H        -13.90276      -13.54815        7.03977
H        -12.41358      -14.08498        9.69427
H        -15.21968      -14.98419        8.80025
H        -16.22107      -16.97328       10.04396
H        -15.55395      -18.89236       11.53829
H        -14.50300      -20.44515       12.85385
H        -12.91120      -21.87203       14.19611
H        -10.36334      -21.94672       14.90586
H         -9.24569      -20.60090       14.29897
