84

C          4.56283        0.01164       -4.04395
C          5.55505       -0.82057       -3.71946
C          6.85529       -0.42230       -3.25106
C          7.60926       -1.45246       -2.84070
C          6.96020       -2.74865       -2.97208
S          5.39922       -2.55378       -3.78481
C          7.39469       -3.91714       -2.46052
C          8.52644       -4.10557       -1.57241
C          8.42521       -5.22325       -0.83271
C          7.21549       -5.98589       -1.10720
S          6.55307       -5.45525       -2.62605
C          6.71380       -6.90319       -0.26245
C          5.49484       -7.65823       -0.37367
S          5.51385       -9.25635        0.31408
C          3.85871       -9.53095        0.00841
C          3.36717       -8.56527       -0.85323
C          4.18951       -7.36434       -0.78554
C          3.58803       -6.00313       -1.11904
C          3.60610       -5.15646        0.09510
N          3.58663       -4.50843        1.05905
C          2.13688       -6.09297       -1.64573
C          1.89527       -7.35090       -2.47809
C          2.04516       -8.60581       -1.59643
C          1.96649       -9.81013       -2.45794
N          1.88583      -10.74420       -3.14242
C          3.11594      -10.61153        0.62595
O          1.74330      -10.52756        0.76739
C          1.36409      -11.61847        1.49043
C          0.12389      -12.05339        2.00364
C          0.29103      -13.24465        2.70106
S          1.95619      -13.77813        2.68019
C          2.43173      -12.39186        1.76492
C          3.58269      -11.77441        1.21301
C         -0.72211      -14.02278        3.39374
S         -0.39725      -14.94715        4.82772
C         -2.01560      -15.53339        4.97774
C         -2.73331      -14.96527        3.97588
C         -2.05431      -14.13869        3.07076
S         -3.05543      -13.44716        1.72210
C         -4.38969      -14.29013        2.45494
N         -5.69748      -14.18030        1.84303
O         -6.61916      -14.78123        2.41297
O         -5.81422      -13.50573        0.81223
C         -4.10557      -15.03517        3.60771
C         -2.38712      -16.40534        6.03855
C         -2.37102      -17.74950        5.93418
C         -2.89413      -18.77549        6.86438
C         -2.86559      -18.75444        8.22250
C         -3.28471      -19.85277        9.02283
N         -3.63047      -20.75381        9.67484
C         -2.34574      -17.64169        8.94751
N         -1.93297      -16.72585        9.52677
C         -3.28245      -19.94413        6.01860
C         -2.71865      -19.76878        4.75291
C         -2.02671      -18.47681        4.66484
O         -1.34817      -18.10845        3.72961
C         -2.89548      -20.64831        3.69261
C         -3.73021      -21.76729        3.90334
C         -4.31429      -21.94563        5.16749
C         -4.10154      -21.04502        6.24326
S         -5.30451      -23.36243        5.19757
C         -4.97965      -23.70292        3.57690
C         -4.13728      -22.79822        2.98925
Br        -5.70818      -25.17132        2.67066
H          4.68007        1.08828       -3.98140
H          3.59307       -0.35930       -4.36146
H          7.17146        0.61134       -3.22128
H          8.60713       -1.32806       -2.44531
H          9.32427       -3.38542       -1.45968
H          9.13761       -5.50545       -0.06923
H          7.30594       -7.11325        0.62908
H          4.14893       -5.51698       -1.90831
H          1.92260       -5.20383       -2.25355
H          1.41491       -6.07478       -0.81844
H          2.60080       -7.37190       -3.32154
H          0.88953       -7.31925       -2.91487
H          1.22689       -8.61740       -0.86822
H         -0.80609      -11.51669        1.87994
H          4.60508      -12.11803        1.26651
H         -4.86311      -15.59876        4.14151
H         -2.76347      -15.91678        6.93284
H         -2.44271      -20.44905        2.72488
H         -4.61323      -21.22342        7.18259
H         -3.82371      -22.84809        1.95320
