111

C         11.67692      -11.60568       15.84856
C         11.43173      -10.83117       14.79009
C         11.66275       -9.41380       14.71948
C         11.27829       -8.87022       13.55599
C         10.71410       -9.82600       12.61390
S         10.76531      -11.45138       13.30873
C         10.21087       -9.54514       11.39559
C         10.10786       -8.22961       10.78991
C          9.57411       -8.23386        9.55930
C          9.21544       -9.55277        9.08625
S          9.55920      -10.76193       10.29752
C          8.73662       -9.80630        7.85796
C          8.38505      -11.11665        7.33057
C          8.40426      -11.48384        6.03866
C          8.12692      -12.82358        5.57398
C          8.47335      -13.03104        4.29397
C          9.04030      -11.86128        3.64499
S          8.88520      -10.45966        4.71230
C          9.68545      -11.82405        2.46270
C         10.02516      -12.94804        1.60964
C         10.97710      -12.66298        0.70449
C         11.44161      -11.28932        0.76478
S         10.36966      -10.35730        1.77934
C         12.54658      -10.82832        0.14876
C         13.15025       -9.47375        0.20622
C         13.85375       -8.98690       -0.91079
C         14.42412       -7.71590       -0.84972
C         14.29163       -6.91300        0.30366
C         13.64126       -7.39033        1.41993
C         13.10822       -8.68019        1.37410
C         14.92093       -5.63221        0.08273
C         15.49906       -5.62265       -1.19920
C         15.23025       -6.95601       -1.91075
C         14.41025       -6.72765       -3.21204
C         13.04853       -6.05623       -3.03161
C         16.55887       -7.68014       -2.26706
C         17.45864       -8.04691       -1.08716
C         16.16125       -4.49935       -1.67407
C         16.20086       -3.34218       -0.87753
C         15.62589       -3.36861        0.40859
C         14.98656       -4.51358        0.89600
C         16.82742       -2.09427       -1.34653
C         16.82434       -1.73256       -2.63784
C         17.37454       -0.49119       -3.14669
C         17.34007       -0.10588       -4.43236
C         17.78335        1.17958       -4.92035
C         17.35824        1.44818       -6.16540
C         16.53447        0.39317       -6.73133
S         16.66227       -1.05030       -5.73595
C         15.67586        0.50822       -7.76084
C         15.40072        1.71235       -8.51995
C         14.26511        1.64784       -9.23020
C         13.57536        0.38316       -9.09526
S         14.56718       -0.77170       -8.24796
C         12.32365        0.16108       -9.52147
C         11.55750       -1.06161       -9.33834
C         10.30593       -1.29194       -9.76382
C          9.60070       -2.52987       -9.53630
C          8.37722       -2.56003      -10.08200
C          8.01714       -1.34289      -10.78823
S          9.32215       -0.16542      -10.66138
C          6.86857       -1.11985      -11.45681
C          5.77143       -2.06171      -11.60030
C          4.75228       -1.60003      -12.33519
C          4.96306       -0.26387      -12.82482
S          6.49299        0.38151      -12.30817
C          4.11260        0.42499      -13.58520
H         12.08594      -11.20156       16.76779
H         11.46623      -12.67093       15.82704
H         12.10141       -8.85398       15.53350
H         11.38197       -7.81667       13.34060
H         10.42503       -7.32295       11.28435
H          9.42570       -7.34277        8.96500
H          8.61352       -8.96948        7.17180
H          8.12504      -11.87020        8.07181
H          7.71254      -13.58700        6.21840
H          8.35777      -13.98339        3.79766
H          9.59494      -13.93196        1.72829
H         11.39172      -13.38762        0.01664
H         13.11238      -11.52318       -0.47024
H         13.94813       -9.58126       -1.81333
H         13.54424       -6.79372        2.32037
H         12.65046       -9.05007        2.28641
H         14.24459       -7.69051       -3.71496
H         14.99447       -6.11565       -3.91014
H         12.38245       -6.65327       -2.40219
H         12.56115       -5.94011       -4.00550
H         13.14137       -5.05908       -2.59097
H         17.14312       -7.05135       -2.95227
H         16.33842       -8.60549       -2.81584
H         17.66550       -7.18820       -0.44240
H         18.41975       -8.42022       -1.45619
H         17.01281       -8.83990       -0.47884
H         16.61707       -4.52179       -2.65921
H         15.65006       -2.47927        1.03713
H         14.53341       -4.50802        1.88168
H         17.25404       -1.44819       -0.58464
H         16.34299       -2.38313       -3.36389
H         17.79152        0.18694       -2.40557
H         18.35551        1.86831       -4.31575
H         17.55558        2.38126       -6.67245
H         16.01782        2.59771       -8.47267
H         13.86885        2.46788       -9.81306
H         11.80999        0.98039      -10.02015
H         12.05248       -1.86102       -8.78994
H         10.03177       -3.35237       -8.97800
H          7.72697       -3.41748      -10.00393
H          5.77555       -3.04740      -11.16045
H          3.85457       -2.16630      -12.54913
H          3.16265        0.00441      -13.89795
H          4.33971        1.43317      -13.91976
