145

C          9.37105        5.96689       -2.19956
C          8.82835        4.76287       -2.37871
C          8.14133        4.33519       -3.56820
C          7.72288        3.06516       -3.50943
C          8.06705        2.38632       -2.27047
S          8.88417        3.50885       -1.17671
C          7.84473        1.08779       -1.99238
C          7.19839        0.12238       -2.86340
C          7.21840       -1.13301       -2.39562
C          7.87106       -1.25757       -1.11329
S          8.36410        0.30195       -0.50566
C          8.11658       -2.42801       -0.50900
C          8.79751       -2.59610        0.76238
C          9.48270       -3.68115        1.14959
C         10.12557       -3.80664        2.43428
C         10.70370       -4.99993        2.62815
C         10.58470       -5.90576        1.49678
S          9.74527       -5.10237        0.17267
C         11.03419       -7.17449        1.44043
C         11.68440       -7.89606        2.51778
C         12.05485       -9.14332        2.19705
C         11.73077       -9.51143        0.83963
S         10.89715       -8.21332        0.01969
C         11.97761      -10.67992        0.22686
C         12.67972      -11.87727        0.82300
C         13.45311      -12.66942       -0.25104
C         14.15847      -13.88529        0.37716
C         13.12154      -14.82481        1.05262
C         12.33383      -14.02989        2.11895
C         11.66615      -12.78596        1.53218
N         13.67071      -16.09573        1.58335
C         14.53672      -15.92708        2.76926
C         15.13941      -17.18814        3.39540
C         14.24927      -16.97075        0.52777
C         14.41494      -16.35285       -0.89695
S         15.21114      -14.70959       -0.87936
C         15.23434      -17.30392       -1.78469
C         14.58293      -18.68402       -1.88886
C         14.20276      -19.26856       -0.53175
C         13.39227      -18.27195        0.32154
C         12.91372      -18.97253        1.57096
C         11.76610      -18.65519        2.19116
C         11.32132      -19.29416        3.40105
C         11.12443      -20.61534        3.51706
C         10.68335      -21.16909        4.74590
O         10.44996      -20.40296        5.86785
C         10.02189      -21.19342        6.90765
C         10.00231      -22.49808        6.44259
C         10.41001      -22.47320        5.09635
O         10.53856      -23.54052        4.27848
O          9.67645      -23.60027        7.13894
C          9.67444      -20.64641        8.16680
C         10.28123      -19.52834        8.58614
C          9.94652      -18.90652        9.83650
C         10.82008      -18.17239       10.54095
C         10.50882      -17.47524       11.84079
C         11.73559      -17.44868       12.76677
C         11.45318      -16.58811       14.00605
C         10.20691      -17.06328       14.79707
C          9.00569      -17.23288       13.83738
C          9.32053      -18.07125       12.60849
N          9.85104      -16.25132       15.99262
C          9.02914      -15.05097       15.72768
C          9.64084      -13.92268       14.89613
C         10.96007      -16.00402       16.96155
C         12.29044      -16.77571       16.65811
S         12.97556      -16.48974       14.98959
C         13.42102      -16.37513       17.61556
C         13.03893      -16.56856       19.07172
C         11.72150      -15.88546       19.39637
C         10.57875      -16.35255       18.46464
C          9.30158      -15.76921       19.04584
C          8.51989      -16.41737       19.92769
H          9.32723        6.72742       -2.97076
H          9.88191        6.22193       -1.27375
H          7.99469        4.98179       -4.42064
H          7.20210        2.58316       -4.32453
H          6.75235        0.38323       -3.81198
H          6.80623       -1.98147       -2.92456
H          7.79928       -3.34368       -1.00567
H          8.73132       -1.75615        1.45199
H         10.12838       -3.00837        3.16428
H         11.21990       -5.25454        3.54197
H         11.84299       -7.47464        3.49991
H         12.53557       -9.81589        2.89220
H         11.63524      -10.79897       -0.80124
H         13.41725      -11.52978        1.55873
H         14.18415      -12.00627       -0.73228
H         12.75967      -13.00261       -1.03686
H         14.85838      -13.50988        1.13293
H         12.36790      -15.10372        0.30154
H         12.99764      -13.69677        2.92575
H         11.56565      -14.66834        2.57183
H         11.17428      -12.23565        2.34447
H         10.87518      -13.09072        0.83521
H         15.35799      -15.23487        2.55497
H         13.93839      -15.48172        3.57128
H         15.90818      -17.64461        2.76600
H         14.37655      -17.93520        3.62360
H         15.62271      -16.92905        4.34422
H         15.25568      -17.27757        0.83436
H         13.43324      -16.21565       -1.36868
H         16.24735      -17.42221       -1.37718
H         15.34233      -16.89455       -2.79660
H         15.26391      -19.37216       -2.40321
H         13.68077      -18.60989       -2.50788
H         15.11917      -19.55186        0.00523
H         13.63546      -20.19503       -0.68637
H         12.49224      -18.00176       -0.25179
H         13.53986      -19.76482        1.97577
H         11.16003      -17.82287        1.84050
H         11.12461      -18.62049        4.23423
H         11.29040      -21.28895        2.68226
H         10.29588      -24.33333        4.79348
H          9.55168      -23.37860        8.07925
H          8.92554      -21.14467        8.77390
H         11.05469      -19.04986        7.98527
H          8.92269      -19.04221       10.17268
H         11.83310      -18.04687       10.15873
H         10.26888      -16.43603       11.57353
H         12.59169      -17.03038       12.21911
H         12.00847      -18.47115       13.06067
H         11.30584      -15.57487       13.63872
H         10.41729      -18.07873       15.16675
H          8.68200      -16.25891       13.45382
H          8.15295      -17.67639       14.36490
H          8.41878      -18.07887       11.98580
H          9.52572      -19.11119       12.89407
H          8.08703      -15.35004       15.25407
H          8.69492      -14.61486       16.67177
H          9.93749      -14.24410       13.89824
H         10.50112      -13.46453       15.39212
H          8.89439      -13.13896       14.73153
H         11.20606      -14.93444       16.93151
H         12.11800      -17.85546       16.75691
H         13.69073      -15.32095       17.46258
H         14.32281      -16.96877       17.41617
H         13.83162      -16.16214       19.71052
H         12.96459      -17.63893       19.29521
H         11.84691      -14.79728       19.30884
H         11.47823      -16.08725       20.44726
H         10.50297      -17.44707       18.53684
H          9.05808      -14.74117       18.80071
H          8.74705      -17.42404       20.26431
H          7.65541      -15.93018       20.36594
