94

C         13.33982       -4.81919      -10.23318
C         14.35690       -5.38711       -9.58198
C         15.36788       -4.68983       -8.83428
C         16.26496       -5.50595       -8.26241
C         16.02407       -6.91881       -8.51429
S         14.60057       -7.10784       -9.54828
C         16.73263       -7.95450       -8.02149
C         17.88159       -7.87373       -7.13558
C         18.29490       -9.06105       -6.66697
C         17.51558      -10.17635       -7.15457
S         16.34299       -9.64506       -8.33603
C         17.62830      -11.44038       -6.71709
C         16.79474      -12.54214       -7.16938
C         15.95390      -13.24111       -6.39315
C         14.99981      -14.20715       -6.88623
C         14.03017      -14.48916       -6.00266
C         14.15350      -13.74363       -4.75919
S         15.74451      -12.98568       -4.68145
C         13.17330      -13.50927       -3.86647
C         11.80244      -13.97018       -3.95343
C         10.95797      -13.30373       -3.15089
C         11.60540      -12.27094       -2.36981
S         13.34142      -12.40226       -2.50377
C         10.94503      -11.31291       -1.69656
C         11.59231      -10.23300       -1.03160
S         12.04200      -10.39423        0.61704
C         12.67641       -8.81255        0.67820
C         12.52693       -8.13326       -0.51385
C         11.90436       -8.96741       -1.51407
C         11.62479       -8.45960       -2.90220
C         12.46803       -7.22491       -3.24229
C         12.39956       -6.17580       -2.12850
C         12.96937       -6.70668       -0.79306
C         12.57518       -5.77514        0.35040
O         13.35979       -5.20131        1.09505
O         11.21462       -5.72794        0.43194
C         10.56845       -5.10908        1.50965
C          9.23445       -5.05523        1.53888
C          8.41168       -4.52055        2.58963
C          7.09995       -4.56202        2.30787
C          6.79024       -5.12208        0.99957
S          8.26715       -5.66696        0.21898
C          5.57629       -5.21444        0.42414
C          4.31874       -4.79172        1.00709
C          3.26269       -4.96239        0.20130
C          3.60080       -5.51179       -1.09211
S          5.30199       -5.85930       -1.19998
C          2.70998       -5.65151       -2.08270
C          2.96433       -6.10939       -3.43928
C          2.20786       -5.80166       -4.50551
C          2.47021       -6.24057       -5.85572
C          1.59784       -5.76386       -6.75583
C          0.56921       -4.90588       -6.19039
S          0.80786       -4.75734       -4.45363
C         -0.43531       -4.30298       -6.85600
C         -0.70408       -4.40355       -8.27893
C         -1.78147       -3.71437       -8.68078
C         -2.44127       -3.01213       -7.61087
S         -1.64303       -3.26303       -6.08756
C         -3.53267       -2.25348       -7.73692
H         13.19941       -3.74455      -10.24589
H         12.61379       -5.41937      -10.77404
H         15.38606       -3.61264       -8.74474
H         17.08505       -5.14394       -7.65934
H         18.34940       -6.94032       -6.85678
H         19.11639       -9.18434       -5.97438
H         18.33236      -11.67617       -5.92164
H         16.78524      -12.70691       -8.24484
H         15.03400      -14.60039       -7.89322
H         13.19886      -15.14243       -6.22550
H         11.47786      -14.74191       -4.64039
H          9.89092      -13.47439       -3.12210
H          9.86001      -11.29822       -1.70500
H         13.11645       -8.45242        1.59877
H         10.55967       -8.20377       -2.96955
H         11.82120       -9.24041       -3.64548
H         12.11020       -6.79018       -4.18283
H         13.51319       -7.51834       -3.40038
H         11.35306       -5.86107       -2.01776
H         12.95293       -5.27706       -2.42788
H         14.06531       -6.70526       -0.85951
H         11.23159       -4.74056        2.27936
H          8.82111       -4.13421        3.51288
H          6.34238       -4.20011        2.98797
H          4.23595       -4.36765        1.99685
H          2.25121       -4.68685        0.46752
H          1.68191       -5.36120       -1.87231
H          3.84574       -6.73053       -3.58542
H          3.30034       -6.88617       -6.10572
H          1.66442       -5.98916       -7.81023
H         -0.09824       -4.98733       -8.95638
H         -2.13236       -3.68154       -9.70238
H         -4.01734       -2.10996       -8.69589
H         -3.97364       -1.75236       -6.88032
