90

C         16.02508       -6.54350        1.13092
C         15.48570       -6.27746        2.32184
C         15.04068       -4.98220        2.75947
C         14.43982       -5.00542        3.95630
C         14.34077       -6.33488        4.53833
S         15.19159       -7.50207        3.52102
C         13.63823       -6.65755        5.64064
C         12.89398       -5.73401        6.47787
C         12.08456       -6.33469        7.36075
C         12.11906       -7.77737        7.27699
S         13.40419       -8.30420        6.21721
C         11.25489       -8.58306        7.91195
C         11.13566      -10.02574        7.78327
C         10.80151      -10.71088        6.67649
C         10.74518      -12.15263        6.58906
C         10.62393      -12.60944        5.33234
C         10.56965      -11.55470        4.33566
S         10.37323       -9.99923        5.14116
C         10.76458      -11.67609        3.00898
C         11.11447      -12.87537        2.27309
C         11.62451      -12.62729        1.05303
C         11.70400      -11.20936        0.73249
S         10.78704      -10.30622        1.91638
C         12.42810      -10.69928       -0.28598
C         12.65706       -9.31399       -0.56698
N         12.15654       -8.32413        0.25840
C         12.53810       -7.05882       -0.12717
C         13.28583       -7.22553       -1.26721
C         13.38280       -8.63691       -1.52925
N         14.11605       -9.17909       -2.53901
C         14.73432       -8.18380       -3.24354
C         14.63101       -6.80374       -2.98306
N         13.90094       -6.24677       -1.97757
C         12.14127       -5.99635        0.70982
C         11.85844       -4.77492        0.23650
C         11.46764       -3.64049        1.05779
C         10.64689       -3.61185        2.12141
C         10.36401       -2.42226        2.89225
C          9.68106       -2.66282        4.02192
C          9.37093       -4.06734        4.23079
S          9.80642       -4.98402        2.79578
C          8.86774       -4.62776        5.34714
C          8.50828       -3.93842        6.57090
C          8.11746       -4.75293        7.56130
C          8.12740       -6.15307        7.20218
S          8.60151       -6.35977        5.53697
C          7.81592       -7.14508        8.05126
C          7.82052       -8.56636        7.74643
C          7.55354       -9.58066        8.58251
C          7.61877      -10.96738        8.18732
C          7.28298      -11.82311        9.16042
C          6.88027      -11.17254       10.39424
S          7.09541       -9.42890       10.25669
C          6.36414      -11.79266       11.47388
C          6.15130      -13.22398       11.60758
C          5.51004      -13.57611       12.72864
C          5.17453      -12.45298       13.56474
S          5.78156      -10.95793       12.91590
C          4.47108      -12.51905       14.69842
H         16.14717       -5.76924        0.38076
H         16.31581       -7.55124        0.85316
H         15.15373       -4.09318        2.15622
H         14.01696       -4.12420        4.41497
H         12.95913       -4.66078        6.37883
H         11.42259       -5.80208        8.02870
H         10.53716       -8.13955        8.59808
H         11.31915      -10.56585        8.70885
H         10.83213      -12.78785        7.45896
H         10.60614      -13.65897        5.07881
H         11.03090      -13.86716        2.69121
H         11.99306      -13.39333        0.38713
H         12.95077      -11.39069       -0.93813
H         11.58749       -8.51493        1.07369
H         15.35844       -8.52762       -4.06489
H         15.16337       -6.08867       -3.60271
H         12.06377       -6.20921        1.77206
H         11.97014       -4.56354       -0.82624
H         11.91373       -2.70540        0.72109
H         10.69769       -1.43997        2.58734
H          9.40749       -1.88671        4.72140
H          8.54804       -2.86434        6.67678
H          7.81410       -4.40932        8.54058
H          7.54831       -6.87650        9.07068
H          8.09442       -8.82747        6.72614
H          7.91281      -11.27722        7.19435
H          7.27755      -12.89259        9.01746
H          6.46731      -13.94336       10.86729
H          5.25398      -14.59305       12.98493
H          4.09454      -13.46239       15.07675
H          4.24397      -11.62668       15.27334
