83

C          4.58989      -12.38942       15.38161
C          5.57788      -12.05401       14.54932
C          6.67766      -11.18895       14.87762
C          7.48984      -10.94860       13.83983
C          7.07471      -11.59119       12.60096
S          5.66541      -12.61401       12.90278
C          7.64101      -11.41019       11.39137
C          8.76095      -10.53249       11.10388
C          9.11023      -10.49487        9.81135
C          8.32820      -11.37611        8.97288
S          7.09135      -12.18486        9.90477
C          8.57997      -11.56408        7.66785
C          7.93317      -12.52074        6.78075
C          8.24400      -12.75367        5.49478
C          7.65100      -13.80381        4.69838
C          8.19956      -13.93821        3.48179
C          9.25357      -12.97832        3.20211
S          9.45420      -11.89419        4.58096
C          9.96402      -12.87007        2.06279
C          9.83020      -13.68030        0.86708
C         10.47400      -13.17729       -0.19813
C         11.17167      -11.93428        0.07725
S         11.18329      -11.63105        1.79383
C         11.70569      -11.15366       -0.87776
C         12.34989       -9.88991       -0.67996
S         13.56633       -9.38934       -1.79346
C         13.82688       -7.88048       -1.00485
C         12.97664       -7.73436        0.07996
C         12.14913       -8.89176        0.25712
C         12.92723       -6.56123        0.94007
O         12.47877       -6.57699        2.08252
C         14.83549       -7.00331       -1.51007
C         16.11078       -7.04596       -1.08753
C         17.17485       -6.19284       -1.57090
C         18.38928       -6.52605       -1.10730
C         18.37800       -7.71034       -0.26713
S         16.71719       -8.16711        0.10008
C         19.44027       -8.45739        0.08963
C         20.84023       -8.19596       -0.18806
C         21.62331       -9.28035       -0.05627
C         20.87321      -10.46911        0.27399
S         19.27246      -10.04923        0.82123
C         21.30689      -11.72805        0.10075
C         20.44218      -12.89200        0.15326
C         20.77765      -14.13807        0.51411
C         19.85218      -15.24433        0.48438
C         20.35922      -16.37513        0.97960
C         21.72059      -16.24320        1.47293
S         22.33071      -14.62433        1.13089
C         22.41407      -17.19243        2.13602
C         21.93261      -18.52437        2.45209
C         22.77685      -19.24265        3.21009
C         23.98184      -18.53119        3.54091
S         24.03348      -16.95929        2.79697
C         24.95599      -18.99084        4.33200
H          4.55131      -12.01014       16.39694
H          3.78281      -13.04366       15.06718
H          6.81965      -10.77206       15.86480
H          8.36277      -10.31731       13.91741
H          9.27125       -9.95357       11.85981
H          9.92310       -9.89282        9.42746
H          9.39160      -10.98479        7.22947
H          7.16514      -13.14398        7.23406
H          6.86045      -14.43910        5.07436
H          7.88644      -14.69404        2.77609
H          9.24610      -14.58874        0.83010
H         10.45800      -13.63280       -1.17910
H         11.63193      -11.49293       -1.90942
H         11.41228       -8.94759        1.05050
H         13.29085       -5.61865        0.49867
H         14.53926       -6.29942       -2.27986
H         17.00047       -5.38021       -2.26361
H         19.29794       -6.01544       -1.39641
H         21.21143       -7.23022       -0.49722
H         22.68468       -9.29500       -0.25895
H         22.32846      -11.90638       -0.22479
H         19.41768      -12.71399       -0.17234
H         18.84432      -15.15123        0.09919
H         19.79380      -17.29553        1.03150
H         20.97960      -18.90796        2.12175
H         22.57674      -20.24807        3.54903
H         24.89655      -19.96934        4.79360
H         25.83524      -18.39252        4.54728
