78

C         11.81951       -3.24748       -5.18651
C         11.38761       -3.14207       -3.92771
C         12.08012       -2.47332       -2.86013
C         11.42011       -2.50122       -1.69404
C         10.15995       -3.22323       -1.74861
S          9.87899       -3.81674       -3.39298
C          9.31116       -3.43017       -0.72360
C          9.43912       -2.94050        0.63557
C          8.40958       -3.26223        1.43477
C          7.37114       -4.03183        0.77685
S          7.84439       -4.37851       -0.87087
C          6.23052       -4.41572        1.37128
C          5.15624       -5.12079        0.72621
S          4.15149       -6.19152        1.66783
C          3.21210       -6.59621        0.26869
C          3.65938       -5.94006       -0.82775
C          4.73001       -5.05475       -0.58925
N          2.91256       -6.31761       -1.90421
C          1.90827       -7.15184       -1.48155
C          2.09444       -7.39573       -0.12911
C          0.98160       -7.64734       -2.44615
C          0.55305       -6.98366       -3.53747
C         -0.26071       -7.57467       -4.57908
C         -0.32771       -6.83414       -5.69776
C          0.41918       -5.59181       -5.61811
S          0.92607       -5.32460       -3.95395
C          0.80686       -4.80719       -6.64165
C          0.59315       -5.03933       -8.05735
C          1.44624       -4.35920       -8.84283
C          2.39058       -3.55095       -8.09384
S          1.84473       -3.40310       -6.44060
C          3.52989       -3.04921       -8.60230
C          4.55023       -2.39953       -7.83331
S          5.48927       -1.13978       -8.57639
C          6.35548       -0.87924       -7.10197
C          5.97312       -1.74272       -6.12960
C          4.98676       -2.66751       -6.54179
N          6.68193       -1.47033       -4.98801
C          7.55706       -0.44304       -5.25150
C          7.37090       -0.04006       -6.56349
C          8.40809       -0.04787       -4.18503
C          9.67128        0.38738       -4.32903
C         10.52042        0.75025       -3.21425
C         11.76923        1.08335       -3.56863
C         12.01042        1.02265       -5.00123
S         10.54126        0.53458       -5.83173
C         13.16533        1.29187       -5.63967
C         14.42217        1.67288       -5.02291
C         15.40566        1.92124       -5.90053
C         14.99906        1.76071       -7.27258
S         13.35030        1.23241       -7.39772
C         15.76234        1.98652       -8.34453
H         12.76066       -2.81541       -5.50434
H         11.23197       -3.75947       -5.94343
H         13.03631       -1.99107       -3.00579
H         11.79932       -2.04321       -0.79285
H         10.28223       -2.35499        0.97382
H          8.34014       -2.96530        2.47236
H          6.08254       -4.17469        2.42396
H          5.15688       -4.42460       -1.35668
H          3.06488       -5.96265       -2.84132
H          1.49785       -8.03835        0.50233
H          0.63698       -8.66678       -2.28709
H         -0.71935       -8.54824       -4.47444
H         -0.85178       -7.14751       -6.58888
H         -0.14051       -5.73500       -8.43757
H          1.47828       -4.44669       -9.91998
H          3.73194       -3.17930       -9.66369
H          4.60387       -3.45751       -5.91023
H          6.56269       -1.98357       -4.12406
H          7.89208        0.75033       -7.08726
H          8.01168       -0.14286       -3.17510
H         10.17049        0.73215       -2.19041
H         12.52537        1.36844       -2.85404
H         14.55811        1.74905       -3.95421
H         16.40749        2.21824       -5.62150
H         16.78960        2.32251       -8.25206
H         15.37406        1.84995       -9.34835
