97

C         15.17800      -16.17527       -5.73463
C         15.01476      -14.90931       -5.34515
C         15.96591      -13.84863       -5.53726
C         15.52831      -12.65880       -5.10273
C         14.18309      -12.69023       -4.54759
S         13.57586      -14.35001       -4.54339
C         13.47115      -11.62380       -4.13376
C         13.91783      -10.24197       -4.14281
C         12.97823       -9.36046       -3.77550
C         11.71298       -9.97109       -3.44844
S         11.81068      -11.71218       -3.54592
C         10.61274       -9.27806       -3.12324
C          9.32772       -9.88920       -2.81272
C          8.33260      -10.19098       -3.75835
F          8.54235       -9.85574       -5.04336
C          7.11096      -10.82690       -3.42838
F          6.24035      -11.05622       -4.42721
C          6.76143      -11.22813       -2.12104
C          7.74470      -10.91816       -1.14834
C          9.01639      -10.25578       -1.48648
N          9.72752      -10.10375       -0.35073
N          8.93199      -10.66759        0.56556
C          9.32139      -10.78001        1.95667
C          9.99423      -12.10818        2.24966
N          7.74739      -11.13022        0.17819
C          5.50143      -11.91231       -1.79843
C          5.15045      -12.34778       -0.57823
C          3.93589      -13.02607       -0.35583
O          2.78623      -12.83936       -1.11105
C          3.61091      -13.94312        0.60496
C          4.15588      -14.65024        1.72579
O          5.27261      -14.57137        2.19916
N          3.10636      -15.44084        2.15890
C          1.94863      -15.29178        1.42424
O          0.87789      -15.85061        1.59269
C          2.29142      -14.33101        0.42807
C          1.76074      -13.63820       -0.62568
C          0.45723      -13.68080       -1.15971
C         -0.08442      -12.61302       -1.76308
C         -1.45647      -12.63951       -2.26203
C         -2.50737      -13.39828       -1.71116
F         -2.27047      -14.16700       -0.63363
C         -3.82231      -13.40906       -2.21538
F         -4.70615      -14.18761       -1.56823
C         -4.24334      -12.65925       -3.32930
C         -3.22422      -11.85559       -3.89437
C         -1.84276      -11.84226       -3.36615
N         -1.12046      -10.99286       -4.12149
N         -2.00857      -10.57762       -5.03849
C         -1.58333       -9.70034       -6.11580
C         -2.67956       -9.32018       -7.10100
N         -3.27163      -11.01762       -4.94456
C         -5.59904      -12.62916       -3.88205
C         -6.41219      -13.69336       -3.81409
C         -7.77168      -13.72605       -4.31146
C         -8.59035      -14.78980       -4.25616
C         -9.95253      -14.78974       -4.73157
C        -10.60705      -15.93450       -4.49054
C         -9.81697      -16.93258       -3.78714
S         -8.16872      -16.35060       -3.58837
C        -10.26162      -18.10846       -3.30219
C        -11.62445      -18.60438       -3.38474
C        -11.83216      -19.74537       -2.71296
C        -10.64899      -20.24564       -2.06286
S         -9.26128      -19.25179       -2.39723
C        -10.59319      -21.32727       -1.28214
H         16.07579      -16.50164       -6.24708
H         14.40901      -16.92157       -5.55918
H         16.93102      -14.00623       -5.99791
H         16.11541      -11.75574       -5.18313
H         14.91478       -9.94210       -4.43059
H         13.13418       -8.29121       -3.73695
H         10.63015       -8.19386       -3.07596
H          8.41181      -10.67396        2.56054
H          9.98092       -9.93938        2.19040
H          9.33038      -12.94904        2.01908
H         10.26669      -12.17065        3.30740
H         10.90267      -12.22781        1.65072
H          4.83824      -12.08988       -2.64500
H          5.77848      -12.23033        0.29511
H          3.17473      -16.05711        2.94936
H         -0.09258      -14.60623       -1.01968
H          0.47302      -11.68692       -1.89401
H         -0.77444      -10.21872       -6.64303
H         -1.17215       -8.79949       -5.64719
H         -3.10634      -10.20844       -7.57962
H         -2.28017       -8.67192       -7.88673
H         -3.49170       -8.78410       -6.59834
H         -5.91050      -11.70612       -4.36361
H         -6.05181      -14.60885       -3.34991
H         -8.14361      -12.79752       -4.73964
H        -10.39580      -13.93426       -5.22190
H        -11.63704      -16.08963       -4.77572
H        -12.40966      -18.09014       -3.91892
H        -12.78876      -20.24405       -2.64766
H        -11.47356      -21.92526       -1.07575
H         -9.66267      -21.63928       -0.81733
