96

C         24.45200      -18.57755        0.55142
C         24.29455      -17.25411        0.45320
C         24.66283      -16.45783       -0.68568
C         24.40524      -15.15187       -0.52991
C         23.80836      -14.80571        0.75604
S         23.60435      -16.27665        1.72213
C         23.45551      -13.56686        1.16592
C         23.61362      -12.33864        0.40529
C         23.13954      -11.24247        1.01650
C         22.55802      -11.49571        2.31790
S         22.71644      -13.19464        2.73062
C         21.93451      -10.56084        3.06204
C         21.31953      -10.77438        4.36848
C         20.22798      -10.17449        4.87621
C         19.59137      -10.57914        6.11409
C         18.29105      -10.24768        6.18813
C         17.82550       -9.48861        5.04816
S         19.24900       -8.98268        4.07910
C         16.55665       -9.21638        4.68200
C         15.27319       -9.70151        5.16263
C         14.22543       -9.31990        4.39222
C         14.60833       -8.49685        3.24579
S         16.25367       -8.03377        3.45648
C         13.84673       -8.07539        2.21498
C         14.17145       -7.39678        0.92776
C         15.27449       -7.37024        0.14420
C         15.35823       -6.90147       -1.24073
C         16.38198       -7.46657       -1.92729
C         17.07531       -8.45345       -1.11299
S         16.83317       -8.02464        0.52531
C         17.57517       -9.64755       -1.46781
C         17.86123      -10.08991       -2.80508
C         17.81983      -11.42154       -2.93226
C         17.42795      -12.11804       -1.71383
S         17.62411      -11.05199       -0.35793
C         16.86691      -13.33852       -1.78279
C         16.18982      -14.13369       -0.79417
S         16.72992      -14.32546        0.84005
C         15.50986      -15.48376        1.25798
C         14.66632      -15.67680        0.17886
C         15.05190      -14.91212       -0.98363
C         14.29343      -14.90625       -2.16913
C         13.11393      -15.67464       -2.07513
F         12.23953      -15.60659       -3.09128
C         12.75887      -16.45166       -0.94876
F         11.62385      -17.16901       -0.98053
C         13.51064      -16.47881        0.22736
C         15.44093      -16.02064        2.58584
C         15.04758      -17.29520        2.75755
C         14.62132      -17.86942        4.01012
C         13.72188      -18.85686        4.14438
C         13.17271      -19.41431        5.38838
C         13.85107      -19.57877        6.54743
C         13.28655      -20.19449        7.67934
N         12.81412      -20.71258        8.62984
C         15.21955      -19.19397        6.69265
N         16.32499      -18.87169        6.80750
C         11.80412      -19.94363        5.06167
C         11.66890      -19.96039        3.67467
C         12.87252      -19.41297        3.02557
O         13.08490      -19.42321        1.83184
C         10.52067      -20.38445        3.00624
C          9.43284      -20.82342        3.79317
C          9.55301      -20.80517        5.18993
C         10.73111      -20.35767        5.84826
S          8.11072      -21.38652        5.94533
C          7.35824      -21.65020        4.45729
C          8.13763      -21.30435        3.38626
Br         5.62719      -22.34775        4.28794
H         24.88931      -19.16010       -0.25335
H         24.15114      -19.12062        1.44078
H         25.10366      -16.88651       -1.57563
H         24.62036      -14.42521       -1.29886
H         24.06834      -12.30741       -0.57487
H         23.17138      -10.25300        0.58034
H         21.85217       -9.55039        2.66103
H         21.76921      -11.56986        4.95683
H         20.11511      -11.14390        6.87131
H         17.64861      -10.48549        7.02229
H         15.17930      -10.33427        6.03478
H         13.20084       -9.61442        4.58238
H         12.77024       -8.24217        2.31039
H         13.26637       -6.98852        0.47318
H         14.65155       -6.20188       -1.66388
H         16.60773       -7.29002       -2.96803
H         18.08857       -9.39319       -3.59832
H         17.98539      -11.92884       -3.87169
H         16.80274      -13.75905       -2.78489
H         14.50800      -14.33136       -3.05750
H         13.14703      -17.04569        1.07097
H         15.58039      -15.34518        3.42569
H         14.95572      -17.94911        1.89190
H         15.04390      -17.37454        4.88189
H         10.46615      -20.36114        1.92533
H         10.74882      -20.34617        6.93023
H          7.81903      -21.39294        2.35420
