102

C          2.19219       -1.96115       -7.96655
C          3.13971       -2.90053       -7.99649
C          4.27810       -2.89928       -8.87364
C          5.06598       -3.97146       -8.72008
C          4.61615       -4.89591       -7.68970
S          3.12692       -4.29455       -6.95374
C          5.24469       -6.02987       -7.32318
C          6.45421       -6.56146       -7.92637
C          6.94737       -7.64024       -7.30452
C          6.17151       -8.04590       -6.15693
S          4.72934       -7.07205       -5.99729
C          6.55623       -9.00195       -5.29969
C          5.85563       -9.36360       -4.08172
C          6.37847       -9.26992       -2.85015
C          5.65789       -9.54156       -1.63080
C          6.34549       -9.23567       -0.52040
C          7.68155       -8.72032       -0.77536
S          7.99632       -8.71262       -2.51166
C          8.58158       -8.31511        0.14197
C          8.40814       -8.29851        1.58254
C          9.51330       -7.95572        2.26272
C         10.65060       -7.66970        1.41666
S         10.19752       -7.74030       -0.26989
C         11.90255       -7.44145        1.84933
C         13.03994       -7.22009        0.96744
C         14.15173       -7.96847        0.91219
C         15.13944       -7.87266       -0.14039
C         15.89421       -8.97692       -0.26287
C         15.55103      -10.00644        0.70044
S         14.51411       -9.30733        1.96146
C         15.76829      -11.33021        0.59223
C         16.32206      -12.06216       -0.52954
C         15.89555      -13.34053       -0.57303
C         15.01316      -13.70080        0.53715
S         15.12864      -12.47108        1.74667
C         14.16946      -14.75090        0.53357
C         13.09318      -15.06680        1.45388
S         11.72609      -15.87863        0.72949
C         10.75427      -15.82077        2.13903
C         11.42900      -15.12206        3.13592
C         12.84926      -14.93696        2.83083
C         13.81489      -14.52799        3.93940
C         14.90834      -15.50730        4.08194
N         15.74980      -16.28153        4.28742
C         13.15926      -14.35861        5.32547
C         11.77927      -13.74142        5.23895
C         10.81041      -14.61254        4.43085
C          9.65897      -13.73651        4.11920
N          8.79748      -12.98764        3.89525
C          9.42228      -16.36486        2.08707
C          8.80508      -16.85473        3.17851
C          7.41908      -17.29535        3.22277
C          6.49620      -16.85894        4.09923
C          5.10912      -17.29269        4.34702
C          4.24204      -17.83171        3.45187
C          2.87715      -18.11462        3.77405
N          1.78325      -18.35051        4.04383
C          4.60889      -18.09880        2.09973
N          4.91754      -18.32022        1.00287
C          4.75013      -16.82765        5.72661
C          5.70133      -15.89604        6.12660
C          6.82390      -15.87056        5.19226
O          7.85935      -15.28443        5.42385
C          5.70319      -15.22332        7.34202
C          4.71220      -15.57864        8.27571
C          3.78471      -16.57269        7.92351
C          3.77522      -17.20100        6.64615
S          2.72341      -16.91155        9.24469
C          3.47522      -15.76652       10.23235
C          4.50355      -15.10785        9.61573
Br         2.96107      -15.43911       12.00355
H          2.22526       -1.10173       -8.62701
H          1.35287       -2.02695       -7.28135
H          4.47221       -2.10419       -9.57966
H          5.96859       -4.11826       -9.29468
H          6.92403       -6.12678       -8.79632
H          7.85134       -8.15025       -7.60756
H          7.50724       -9.50825       -5.45810
H          4.81812       -9.66503       -4.20730
H          4.64894       -9.93091       -1.62801
H          5.94009       -9.36040        0.47342
H          7.47751       -8.55962        2.06670
H          9.56478       -7.91968        3.34231
H         12.11940       -7.47420        2.91511
H         12.88481       -6.46223        0.20151
H         15.19650       -7.02315       -0.80559
H         16.63952       -9.11206       -1.03299
H         16.93241      -11.60185       -1.29487
H         16.12343      -14.01680       -1.38664
H         14.18824      -15.35492       -0.37545
H         14.20955      -13.54474        3.72652
H         13.79473      -13.70032        5.93499
H         13.09988      -15.31133        5.86583
H         11.86044      -12.74219        4.78936
H         11.37632      -13.59363        6.24931
H         10.54581      -15.47624        5.05409
H          8.89788      -16.34874        1.13257
H          9.32248      -16.91707        4.13057
H          7.19948      -18.09560        2.51980
H          6.48162      -14.50202        7.58088
H          3.05264      -17.98048        6.45092
H          5.10692      -14.34231       10.09070
