82

C         14.87614       -7.12987        1.76860
C         14.05957       -6.85331        0.75040
C         14.36934       -6.02707       -0.38566
C         13.31694       -5.81311       -1.19052
C         12.08722       -6.44506       -0.72690
S         12.43152       -7.45527        0.68243
C         10.84288       -6.23929       -1.20282
C         10.46085       -5.34967       -2.28402
C          9.14302       -5.09666       -2.33159
C          8.38123       -5.78229       -1.30562
S          9.39333       -6.93781       -0.47378
C          7.09061       -5.53316       -1.02183
C          6.35796       -6.22744       -0.01181
S          5.50540       -7.64049       -0.43768
C          4.99622       -7.98471        1.17119
C          5.44715       -6.98139        2.02801
C          6.13630       -5.91459        1.31969
C          6.60116       -4.65840        2.00997
C          6.09161       -4.54221        3.45354
C          6.18775       -5.88593        4.19152
C          5.83682       -5.73186        5.67072
C          5.24853       -6.90551        3.52195
C          4.15150       -9.15340        1.44133
S          3.00400       -9.13709        2.72984
C          2.33212      -10.64745        2.33029
C          2.96233      -11.18508        1.21464
C          4.05722      -10.35723        0.74208
C          4.89610      -10.79314       -0.43776
C          4.74416      -12.28030       -0.76554
C          3.25826      -12.65291       -0.84896
C          3.07964      -14.07495       -1.37533
C          2.59272      -12.48468        0.53030
C          1.24155      -11.25261        3.07857
O          1.11101      -12.62348        3.06604
C         -0.02100      -12.95600        3.70969
C         -0.65898      -11.83253        4.16677
N         -1.92890      -11.97229        4.80144
O         -2.85343      -12.38207        4.08361
O         -1.98382      -11.79585        6.02585
C          0.17695      -10.70972        3.82883
N          0.02448       -9.36439        4.07529
C         -0.99457       -8.70763        4.68672
O         -2.03433       -9.44223        5.13498
C         -2.89545       -8.64632        5.79752
C         -2.48142       -7.34198        5.69092
N         -3.22730       -6.24562        6.21346
O         -4.28281       -6.49720        6.79742
O         -2.75790       -5.10880        6.01909
C         -1.24227       -7.37470        4.97880
N         -0.45536       -6.32774        4.64834
H         15.88379       -6.73545        1.81924
H         14.54521       -7.75105        2.59678
H         15.35386       -5.60920       -0.54831
H         13.37027       -5.19632       -2.07489
H         11.17356       -4.90456       -2.96460
H          8.68430       -4.43271       -3.05172
H          6.55138       -4.77398       -1.57984
H          6.24950       -3.78436        1.44720
H          7.69677       -4.63071        2.00780
H          5.04482       -4.20740        3.44671
H          6.66351       -3.76788        3.97798
H          7.22169       -6.25110        4.12430
H          4.82163       -5.34272        5.80341
H          6.53080       -5.04382        6.16449
H          5.89910       -6.69638        6.18632
H          4.20827       -6.61618        3.71855
H          5.42176       -7.88909        3.97377
H          5.95591      -10.58360       -0.25628
H          4.57689      -10.22414       -1.31964
H          5.24267      -12.88743        0.00123
H          5.24830      -12.48926       -1.71701
H          2.77055      -11.97140       -1.56012
H          3.54955      -14.80891       -0.71240
H          3.52984      -14.17959       -2.36850
H          2.01709      -14.32464       -1.46328
H          2.88015      -13.31668        1.18501
H          1.50458      -12.52849        0.39490
H         -0.25921      -14.00962        3.74514
H          0.81450       -8.77006        3.82240
H         -3.73178       -9.15196        6.26170
H         -0.75655       -5.36887        4.83162
H          0.32375       -6.39514        4.00151
