82

C         -7.85739      -24.49493       -5.97702
C         -8.30151      -23.82748       -4.91000
C         -9.64362      -23.85747       -4.39647
C         -9.84050      -23.02159       -3.36553
C         -8.65730      -22.26708       -2.98768
S         -7.27912      -22.77857       -3.97651
C         -8.59128      -21.27659       -2.07772
C         -9.67836      -20.71778       -1.30227
C         -9.35805      -19.57857       -0.66410
C         -7.99092      -19.15497       -0.88652
S         -7.11250      -20.40422       -1.71974
C         -7.49392      -17.97030       -0.49797
C         -6.17240      -17.50414       -0.76251
S         -5.36851      -16.43327        0.39260
C         -3.84106      -16.40557       -0.48622
C         -4.07473      -17.07637       -1.63795
C         -5.28352      -17.67635       -1.76740
C         -4.83970      -18.28157       -3.01390
N         -3.58683      -17.58157       -2.78529
C         -2.64207      -15.81658       -0.00134
C         -2.61746      -14.79589        0.86744
C         -1.38968      -14.19792        1.39597
N         -0.20757      -14.72895        1.03903
C          0.88819      -14.17277        1.59262
C          0.83676      -13.12090        2.47430
C         -0.42303      -12.64628        2.76371
N         -1.54831      -13.15869        2.22930
C         -0.61561      -11.51681        3.66707
C         -0.76028      -11.66604        4.99638
C         -1.04763      -10.56719        5.89954
C         -0.32135       -9.45531        6.09411
C         -0.74795       -8.32623        6.89170
C         -0.04910       -7.20777        6.63847
C          0.97326       -7.39702        5.62287
S          1.21856       -9.12414        5.35063
C          1.50220       -6.45065        4.82607
C          1.11786       -5.05077        4.77322
C          1.29356       -4.51581        3.55253
C          1.84729       -5.46167        2.60205
S          2.53000       -6.82522        3.44546
C          1.72548       -5.36143        1.26970
C          2.09675       -6.40406        0.36924
S          3.67541       -6.44020       -0.30491
C          3.31387       -7.80659       -1.27331
C          2.01963       -8.25326       -1.11464
C          1.34225       -7.45734       -0.12244
N          0.05759       -7.73362        0.25617
C         -0.40443       -9.09881        0.01103
C         -0.04596       -9.56418       -1.41117
N          1.36251       -9.32010       -1.79071
C          1.99321       -9.98813       -2.84107
O          3.17017       -9.89739       -3.16396
O          1.19455      -10.80959       -3.56829
H         -8.50656      -25.13994       -6.55707
H         -6.82681      -24.40333       -6.30845
H        -10.41273      -24.49027       -4.81764
H        -10.79304      -22.91293       -2.86821
H        -10.66794      -21.15625       -1.26504
H        -10.05664      -19.00811       -0.06238
H         -8.14072      -17.29490        0.06076
H         -5.39612      -17.97680       -3.90564
H         -4.75952      -19.37243       -3.03083
H         -2.77596      -18.18988       -2.71243
H         -1.70976      -16.22771       -0.38614
H         -3.52757      -14.34099        1.24274
H          1.83267      -14.61558        1.29675
H          1.73410      -12.69386        2.90392
H         -0.68173      -10.54518        3.18927
H         -0.75758      -12.65947        5.44109
H         -1.98671      -10.68132        6.43863
H         -1.58985       -8.37260        7.56815
H         -0.26462       -6.25082        7.09236
H          0.64984       -4.52639        5.59445
H          0.98752       -3.51594        3.27618
H          1.21870       -4.50709        0.83282
H          4.09216       -8.19063       -1.91653
H         -0.26428       -7.34449        1.14068
H          0.05198       -9.77124        0.74757
H         -1.48986       -9.14746        0.15017
H         -0.66611       -9.03954       -2.14881
H         -0.26284      -10.63555       -1.48660
H          0.24673      -10.73917       -3.39124
