82

C          5.19872       -7.84376       13.77790
C          5.57103       -7.96915       12.50204
C          6.48814       -8.95862       12.00734
C          6.66229       -8.90242       10.68076
C          5.89945       -7.85071       10.02269
S          4.98501       -6.93568       11.22648
C          5.90123       -7.59522        8.69901
C          6.61470       -8.36350        7.69261
C          6.58198       -7.82989        6.46462
C          5.85094       -6.58955        6.40249
S          5.05701       -6.25215        7.92818
C          5.79413       -5.72728        5.37727
C          6.53298       -5.84503        4.11109
C          6.05834       -6.50244        2.97567
C          6.77923       -6.50089        1.72346
N          6.25162       -7.18640        0.68457
C          5.04602       -7.79912        0.81717
C          4.36158       -7.77052        2.00403
N          4.86865       -7.13522        3.08812
C          3.07763       -8.38124        2.17789
N          2.03863       -8.88023        2.28761
C          4.52974       -8.42127       -0.36539
N          4.09941       -8.90443       -1.32890
C          8.00130       -5.78195        1.51331
C          8.49372       -5.09383        2.67158
C          7.76709       -5.16076        3.99244
N          8.40296       -4.51126        4.98218
S          9.77198       -3.85913        4.33304
N          9.56433       -4.28624        2.75310
C          8.67245       -5.67853        0.17958
C         10.09103       -5.61423       -0.02489
N         11.04924       -5.71074        0.91335
S         12.49898       -5.38925        0.19361
N         12.03968       -5.31895       -1.38932
C         10.70284       -5.47280       -1.42770
C          9.89014       -5.50108       -2.59836
C          8.51107       -5.59966       -2.34759
C          7.94773       -5.64420       -1.04648
C         10.48151       -5.47435       -3.94559
S          9.63123       -4.79869       -5.26039
C         10.86270       -5.17444       -6.42131
C         11.95068       -5.78580       -5.78993
C         11.70079       -5.95428       -4.37849
C         13.17155       -6.26761       -6.47274
O         13.11549       -6.69266       -7.63136
C         14.50835       -6.25015       -5.72133
F         14.45344       -5.74415       -4.45801
F         15.04040       -7.50021       -5.59909
F         15.44684       -5.50297       -6.37233
C         10.60006       -4.81430       -7.78645
C         11.56951       -4.45309       -8.66413
C         10.92564       -4.20264       -9.93034
C         11.44856       -3.88270      -11.12744
C         10.50027       -3.68557      -12.20470
C         10.69151       -3.33958      -13.49148
C          9.39214       -3.24137      -14.17494
C          8.40700       -3.55560      -13.30320
C          9.04487       -3.83310      -12.03838
C          8.52544       -4.16682      -10.84291
C          9.47848       -4.37117       -9.76847
C          9.29661       -4.73529       -8.48800
C          9.14971       -2.87500      -15.54627
C          9.57634       -1.72522      -16.08282
H          5.58097       -8.50660       14.54723
H          4.49514       -7.07927       14.09148
H          6.98566       -9.67012       12.65175
H          7.32992       -9.56825       10.15449
H          7.12702       -9.28877        7.91070
H          7.06214       -8.27747        5.60713
H          5.23636       -4.79750        5.48378
H          7.81439       -5.65643       -3.18593
H          6.85711       -5.67158       -1.02175
H         12.39159       -6.44454       -3.70076
H         12.63064       -4.37029       -8.50485
H         12.51064       -3.77259      -11.29962
H         11.63774       -3.15405      -13.97477
H          7.34593       -3.56785      -13.48935
H          7.46348       -4.27891      -10.67015
H          8.34737       -4.94774       -8.02141
H          8.58007       -3.57716      -16.15006
H         10.12243       -0.98970      -15.49941
H          9.36494       -1.48531      -17.11965
