89

C          0.14517       -9.92569       -4.89528
C          0.06779       -8.63131       -5.20809
C         -0.58699       -8.08887       -6.36843
C         -0.34258       -6.78331       -6.55092
C          0.55095       -6.21925       -5.55184
S          0.81638       -7.38796       -4.25263
C          1.24289       -5.07118       -5.66798
C          1.27340       -4.20967       -6.83789
C          2.44286       -3.56119       -6.96331
C          3.36063       -3.85543       -5.87826
S          2.51051       -4.58068       -4.54393
C          4.69201       -3.71788       -5.94694
C          5.67855       -4.16231       -4.93894
C          6.23849       -5.43814       -4.88917
C          7.27359       -5.81409       -3.93126
N          7.59013       -7.13617       -3.88147
C          7.00956       -8.01410       -4.76797
C          6.11225       -7.60918       -5.72583
N          5.73499       -6.31442       -5.78751
C          5.50485       -8.48967       -6.68863
N          5.02864       -9.21716       -7.47206
C          7.36327       -9.39554       -4.62831
N          7.59827      -10.53022       -4.55455
C          7.94163       -4.84906       -3.07079
C          7.33718       -3.54160       -3.11364
C          6.14794       -3.23009       -3.99515
N          5.63186       -2.00707       -3.78521
S          6.55698       -1.28670       -2.62911
N          7.74188       -2.42727       -2.47898
C          9.17821       -5.12370       -2.20372
C          9.53242       -4.49430       -0.96084
C         10.78797       -4.73446       -0.25972
N         11.22333       -3.88544        0.68703
C         10.40344       -2.90435        1.11590
C          9.13665       -2.79201        0.61408
N          8.69419       -3.60300       -0.39131
C          8.23224       -1.78094        1.07041
N          7.53917       -0.93855        1.46876
C         10.94560       -2.03384        2.11535
N         11.38219       -1.31842        2.91926
C         11.61606       -5.83733       -0.48874
C         11.36734       -6.44379       -1.75611
C         10.20650       -6.01127       -2.65614
N         10.31434       -6.54274       -3.88772
S         11.57111       -7.61232       -3.87051
N         12.05174       -7.46590       -2.29966
C         12.56194       -6.43618        0.52755
C         13.75539       -7.13247        0.22483
C         14.29995       -8.17038        1.08047
N         15.32127       -8.91858        0.62950
C         15.89784       -8.63162       -0.56301
C         15.44312       -7.58849       -1.32298
N         14.37725       -6.83605       -0.93640
C         16.03847       -7.23125       -2.57481
N         16.53324       -6.95427       -3.58793
C         17.00216       -9.45899       -0.96252
N         17.90778      -10.09185       -1.32204
C         13.79146       -8.43921        2.36522
C         12.87411       -7.47233        2.85332
C         12.21024       -6.49412        1.92052
N         11.23560       -5.81541        2.55612
S         11.35435       -6.13402        4.17167
N         12.44011       -7.37216        4.12380
C         13.81206       -9.71670        3.12742
C         14.61055      -10.79275        3.20377
C         14.12773      -12.03090        3.78765
C         14.84035      -13.10318        3.41731
C         15.98638      -12.77694        2.58625
S         16.19196      -11.02632        2.53430
C         16.75517      -13.65439        1.91384
C         16.53371      -15.08844        1.82955
C         17.43126      -15.73606        1.07404
C         18.43713      -14.86803        0.51980
S         18.16847      -13.20614        0.95783
C         19.46413      -15.25993       -0.23771
H         -0.30464      -10.68659       -5.52251
H          0.68711      -10.26300       -4.01707
H         -1.18427       -8.69294       -7.03627
H         -0.72339       -6.22337       -7.39283
H          0.48879       -4.17807       -7.58156
H          2.70480       -2.95136       -7.81724
H          5.13812       -3.33180       -6.85998
H         12.86454       -9.84166        3.66282
H         13.22183      -12.09407        4.37597
H         14.57478      -14.11260        3.69613
H         15.70206      -15.58911        2.30346
H         17.41020      -16.80005        0.88491
H         19.61434      -16.30154       -0.49742
H         20.18794      -14.54463       -0.61707
