111

C        -11.87095       -8.53709       -4.37130
C        -11.20644       -9.67603       -4.57822
C        -11.46041      -10.63388       -5.62237
C        -10.50074      -11.56788       -5.72689
C         -9.41212      -11.39618       -4.77196
S         -9.85322      -10.14923       -3.59446
C         -8.18596      -11.95497       -4.82071
C         -7.64834      -12.79650       -5.87523
C         -6.30631      -12.74068       -5.95337
C         -5.71166      -11.86259       -4.95769
S         -6.88339      -11.57056       -3.68955
C         -4.48105      -11.32235       -5.05648
C         -3.93076      -10.35709       -4.14941
S         -2.24534      -10.39048       -3.78330
C         -2.37669       -9.25012       -2.47717
C         -3.70036       -8.83483       -2.39606
C         -4.45264       -9.21441       -3.56443
C         -5.64583       -8.47380       -3.97204
O         -6.28770       -8.72763       -4.98815
C         -5.89215       -7.18557       -3.20900
C         -5.61330       -7.29564       -1.71413
C         -4.32229       -8.02084       -1.35278
O         -3.90717       -8.02163       -0.19496
C         -1.14113       -8.81413       -1.75065
C         -0.03092       -9.63984       -1.48212
C          1.24041       -9.12119       -1.00406
N          2.29410       -9.95457       -0.91818
C          2.15291      -11.27289       -1.18052
C          0.93535      -11.78063       -1.53829
N         -0.14598      -10.97522       -1.69428
C          0.75203      -13.17712       -1.74940
N          0.68597      -14.33522       -1.88905
C          3.31988      -12.08072       -1.05386
N          4.25766      -12.76102       -0.95625
C          1.44913       -7.77178       -0.63187
C          0.30518       -6.92933       -0.78413
C         -0.98395       -7.44128       -1.39547
N         -1.87700       -6.45023       -1.58502
S         -1.28236       -5.09299       -0.85841
N          0.21423       -5.63238       -0.43536
C          2.75137       -7.23550       -0.10357
C          3.60931       -8.02490        0.69642
C          4.80651       -7.51629        1.19380
C          5.18109       -6.18881        0.92443
C          4.38247       -5.38502        0.13688
C          3.18603       -5.91250       -0.37378
C          6.39007       -5.87509        1.64713
C          6.77853       -7.00314        2.39361
C          5.83104       -8.18600        2.12454
C          5.21232       -8.71160        3.44584
C          4.38114       -7.70680        4.24769
C          6.66560       -9.27970        1.38855
C          5.94175      -10.56808        1.02193
C          7.86301       -6.95343        3.25574
C          8.58843       -5.76102        3.35936
C          8.20179       -4.63898        2.59792
C          7.10293       -4.69227        1.73429
C          9.69827       -5.62361        4.30718
C         10.49001       -6.63637        4.69480
C         11.56569       -6.49796        5.64403
C         11.58810       -5.59489        6.65353
C         12.81476       -5.80571        7.37074
C         13.33238       -5.13574        8.41268
C         14.61968       -5.59818        8.88189
C         15.41578       -5.12664        9.85802
C         16.62752       -5.95457        9.94495
C         16.56164       -6.94123        9.02246
C         15.32404       -6.75552        8.30496
C         14.79971       -7.42845        7.26503
C         13.52611       -6.94132        6.77083
C         12.76088       -7.35412        5.74838
C         17.73735       -5.78800       10.84495
C         18.47680       -4.67389       10.89748
H        -12.69784       -8.22980       -5.00057
H        -11.57867       -7.85902       -3.57438
H        -12.32960      -10.57641       -6.26359
H        -10.52060      -12.35230       -6.47023
H         -8.26627      -13.34727       -6.57028
H         -5.72400      -13.24147       -6.71410
H         -3.85205      -11.62464       -5.89049
H         -5.23564       -6.42774       -3.65567
H         -6.92785       -6.86961       -3.37337
H         -6.43755       -7.83242       -1.23104
H         -5.56407       -6.28724       -1.28761
H          3.34695       -9.04318        0.95966
H          4.65201       -4.35361       -0.06538
H          2.58267       -5.24069       -0.98008
H          6.01561       -9.07375        4.10085
H          4.56974       -9.57593        3.24276
H          4.91044       -6.76553        4.42219
H          4.13967       -8.13124        5.22849
H          3.43351       -7.48401        3.74784
H          7.52724       -9.56618        2.00759
H          7.08925       -8.86182        0.46463
H          5.72070      -11.17548        1.90420
H          6.57102      -11.17081        0.35713
H          5.01353      -10.37422        0.48858
H          8.11619       -7.82205        3.85443
H          8.75515       -3.70535        2.68041
H          6.81294       -3.81542        1.16599
H          9.85940       -4.61868        4.69034
H         10.36493       -7.63308        4.27926
H         10.84644       -4.85158        6.89335
H         12.84055       -4.29149        8.87624
H         15.21913       -4.27927       10.49559
H         17.29460       -7.70504        8.82458
H         15.28683       -8.27353        6.79767
H         12.97103       -8.17148        5.07583
H         17.97227       -6.62814       11.49340
H         18.28373       -3.82700       10.24551
H         19.31241       -4.59855       11.58513
