87

C         -5.54955       -8.78720       -1.44377
C         -4.73598       -9.55224       -0.71334
C         -4.85678       -9.80422        0.69814
C         -3.82136      -10.48838        1.20741
C         -2.79308      -10.80190        0.22937
S         -3.34723      -10.34699       -1.38984
C         -1.54794      -11.23931        0.49226
C         -0.95420      -11.48608        1.79456
C          0.38716      -11.43196        1.77704
C          0.92342      -11.13325        0.46347
S         -0.30940      -11.40574       -0.73573
C          2.14778      -10.62438        0.23834
N          2.76664      -10.07001       -0.90126
C          4.05941       -9.56714       -0.86852
C          5.08380       -9.99650       -0.05077
S          6.51990       -9.08336       -0.25956
C          5.79377       -8.10310       -1.45940
C          4.49534       -8.48598       -1.71349
N          3.66489       -7.93095       -2.65813
C          2.68114       -8.89867       -3.16439
C          1.90636       -9.52142       -1.99840
C          3.54568       -6.56087       -2.84658
C          2.80469       -5.86879       -3.72331
C          2.76003       -4.44278       -3.74197
S          1.28700       -3.71558       -4.22409
C          1.79183       -2.07014       -3.92512
C          3.15613       -2.12668       -3.61653
C          3.69204       -3.45141       -3.51102
N          5.08281       -3.69144       -3.25537
O          5.38824       -4.12732       -2.14279
O          5.85824       -3.37111       -4.16175
N          4.00806       -1.00417       -3.37395
O          4.30883       -0.30496       -4.34688
O          4.41778       -0.87234       -2.21739
N          0.89548       -0.99503       -4.07545
C         -0.45964       -1.11517       -4.39261
C         -1.35618       -2.04840       -3.91202
S         -2.88091       -1.96873       -4.69371
C         -2.41466       -0.58682       -5.58685
C         -1.13642       -0.18801       -5.26943
N         -0.52679        0.96713       -5.68702
C          0.46450        1.43944       -4.70391
C          1.49144        0.32921       -4.44489
C         -0.63725        1.50230       -6.96309
C         -0.10818        2.63780       -7.43981
C         -0.19249        3.04714       -8.82424
C          0.33285        4.16667       -9.34820
C          0.24292        4.50489      -10.74481
C          0.80111        5.68328      -11.05275
C          1.38155        6.38362       -9.90953
S          1.20311        5.39767       -8.46017
C          1.95372        7.59960       -9.93938
C          2.10002        8.44248      -11.11496
C          2.67257        9.62958      -10.87306
C          3.02622        9.81771       -9.48997
S          2.62379        8.42470       -8.52633
C          3.59076       10.91558       -8.98336
H         -6.39966       -8.27792       -1.00492
H         -5.37451       -8.63226       -2.50465
H         -5.69387       -9.44974        1.28228
H         -3.73576      -10.74141        2.25388
H         -1.53548      -11.63994        2.69212
H          1.01185      -11.52379        2.65792
H          2.78861      -10.51627        1.11237
H          5.07497      -10.80452        0.66498
H          6.36605       -7.32198       -1.94017
H          3.20826       -9.68311       -3.72366
H          1.96830       -8.45244       -3.86545
H          1.31616      -10.32062       -2.44716
H          1.23339       -8.76375       -1.57423
H          4.13201       -6.03964       -2.09805
H          2.16267       -6.39870       -4.42217
H         -1.20255       -2.80946       -3.16178
H         -3.12253       -0.10315       -6.24453
H         -0.04978        1.70660       -3.77020
H          0.99763        2.33920       -5.02351
H          2.12383        0.68710       -3.62753
H          2.08574        0.20527       -5.35900
H         -1.20121        0.85669       -7.63476
H          0.44036        3.29471       -6.77366
H         -0.71561        2.36070       -9.48681
H         -0.23245        3.86006      -11.47063
H          0.81388        6.07721      -12.05496
H          1.77295        8.14651      -12.10012
H          2.85288       10.38011      -11.62972
H          3.82740       11.77085       -9.60827
H          3.83077       10.98799       -7.92727
