106

C          4.40253       -7.62214       13.66490
C          4.87240       -7.27674       12.46434
C          6.05939       -6.49907       12.23886
C          6.33709       -6.32249       10.94105
C          5.37673       -6.93969       10.03734
S          4.10345       -7.73342       10.96889
C          5.43236       -6.89756        8.69158
C          6.48921       -6.27603        7.91340
C          6.26170       -6.25496        6.59435
C          5.00253       -6.85324        6.22142
S          4.21014       -7.56659        7.60984
C          4.44422       -6.87666        5.00267
C          5.02383       -6.24310        3.81136
C          4.76692       -4.91722        3.43121
C          5.33726       -4.33687        2.24255
N          5.01665       -3.05522        1.93789
C          4.20433       -2.34293        2.76352
C          3.67562       -2.90709        3.89579
N          3.94833       -4.19376        4.22801
C          2.81349       -2.19428        4.79452
N          2.12024       -1.59804        5.50438
C          3.94995       -0.98577        2.37945
N          3.72844        0.11809        2.09583
C          6.20813       -5.07199        1.39355
C          6.51986       -6.41019        1.78110
C          5.89644       -7.01045        3.00376
N          6.25966       -8.28703        3.21178
S          7.31147       -8.69828        2.00817
N          7.36186       -7.27123        1.18229
C          6.81248       -4.49406        0.17974
S          7.14230       -5.45654       -1.22667
C          7.84154       -4.11020       -2.00202
C          7.67023       -2.99974       -1.21098
N          7.10368       -3.21490        0.02495
C          8.03840       -1.69083       -1.61692
C          7.40638       -0.56639       -1.24369
C          7.77985        0.75950       -1.74905
C          8.30439        0.92515       -3.03926
C          8.65431        2.19625       -3.45756
C          8.45206        3.31760       -2.62662
C          7.90444        3.17297       -1.36594
C          7.56670        1.88724       -0.93069
C          8.89790        4.50201       -3.32071
C          9.39483        4.13214       -4.58645
C          9.28094        2.61981       -4.78513
C         10.68141        1.97497       -4.99483
C         11.67920        2.16766       -3.85158
C          8.36706        2.27383       -5.99370
C          6.91611        2.74257       -5.88005
C          9.90136        5.07689       -5.46183
C          9.92250        6.41900       -5.06217
C          9.39813        6.78553       -3.80561
C          8.88946        5.82675       -2.92497
C         10.44747        7.46919       -5.93933
C         11.44411        7.26431       -6.81422
C         11.95772        8.29492       -7.67010
C         12.49732        9.45353       -7.22489
C         12.87237       10.20166       -8.39544
C         13.41801       11.42412       -8.50949
C         13.62474       11.89955       -9.86059
C         14.08859       13.07851      -10.31287
C         14.08757       13.07485      -11.78398
C         13.63985       11.87861      -12.22766
C         13.31116       11.10153      -11.05807
C         12.77958        9.87172      -10.94234
C         12.54251        9.40996       -9.58974
C         12.00331        8.26785       -9.13881
C         14.47574       14.14664      -12.66103
C         13.89992       15.35444      -12.63418
H          4.90785       -7.32375       14.57730
H          3.50169       -8.21795       13.77133
H          6.65883       -6.09780       13.04392
H          7.18890       -5.75162       10.60250
H          7.38750       -5.86883        8.35353
H          6.95453       -5.83288        5.88157
H          3.48443       -7.36208        4.84299
H          8.27512       -4.18230       -2.98918
H          8.87323       -1.63036       -2.30955
H          6.57002       -0.60908       -0.54897
H          8.43929        0.08627       -3.71342
H          7.74238        4.02957       -0.72096
H          7.14112        1.76877        0.06402
H         11.13733        2.37553       -5.91024
H         10.56841        0.89504       -5.15812
H         11.87254        3.22593       -3.65363
H         12.63554        1.70045       -4.10905
H         11.32792        1.70014       -2.92680
H          8.35260        1.18645       -6.14672
H          8.79250        2.70430       -6.90990
H          6.37796        2.18432       -5.10750
H          6.39378        2.57256       -6.82710
H          6.84471        3.80916       -5.64955
H         10.27037        4.76828       -6.43419
H          9.39592        7.82886       -3.49718
H          8.50179        6.12292       -1.95669
H          9.98776        8.44991       -5.84348
H         11.91500        6.29257       -6.92841
H         12.62207        9.76937       -6.20239
H         13.67402       12.04020       -7.65842
H         14.41313       13.91458       -9.71436
H         13.50562       11.56445      -13.24887
H         12.51704        9.25582      -11.79178
H         11.62940        7.45050       -9.73447
H         15.26478       13.93348      -13.37756
H         13.08970       15.58587      -11.94867
H         14.21546       16.13365      -13.31965
