95

C          4.90375       -2.78753       -6.97728
C          5.89600       -2.65395       -6.09489
C          7.17403       -2.04686       -6.35141
C          8.02423       -2.13907       -5.31723
C          7.47385       -2.83579       -4.16399
S          5.77744       -3.23967       -4.46430
C          8.13761       -3.20286       -3.04973
C          9.54925       -3.00611       -2.77140
C          9.99071       -3.69785       -1.70899
C          8.96012       -4.48081       -1.05919
S          7.39411       -4.11207       -1.73248
C          9.19683       -5.39815       -0.10733
C          8.18395       -6.22043        0.46371
C          7.41082       -6.00581        1.60304
C          6.55045       -7.09093        1.84496
C          6.68248       -8.07724        0.89180
S          7.82132       -7.76185       -0.27302
C          5.78601       -9.12530        1.19296
C          5.09455       -8.80345        2.34335
C          5.50848       -7.45639        2.88757
C          4.18371       -9.80889        2.70464
C          4.21420      -10.85952        1.79153
S          5.36716      -10.57921        0.51549
C          3.46772      -12.06244        1.76931
C          3.01911      -12.60186        2.91119
C          2.27636      -13.80590        2.89381
C          2.29953      -14.85450        1.97541
C          1.37906      -15.85326        2.32855
C          0.70823      -15.53443        3.49079
S          1.14524      -14.09677        4.18335
C         -0.19690      -16.56981        3.79328
C         -0.09145      -17.54241        2.82322
C          0.93559      -17.18605        1.77180
C         -0.96609      -18.60925        3.07126
C         -1.71345      -18.39982        4.23068
S         -1.30514      -16.88107        4.98509
C         -2.70379      -19.21347        4.84310
C         -3.02745      -20.39914        4.30190
C         -4.00309      -21.22184        4.90083
C         -3.82227      -22.20789        5.86722
C         -5.03871      -22.85495        6.15219
C         -6.07248      -22.33519        5.40077
S         -5.64864      -21.11301        4.36557
C         -7.25968      -23.02561        5.71526
C         -6.98067      -23.98874        6.66130
C         -5.51470      -23.97894        7.05189
C         -8.13741      -24.71621        7.00412
C         -9.25060      -24.26288        6.29191
S         -8.84178      -22.94164        5.23394
C        -10.60247      -24.70032        6.31215
C        -10.90174      -25.97648        6.58436
C        -12.25948      -26.47142        6.63679
C        -12.61454      -27.73136        6.92795
C        -13.98264      -28.17992        6.99683
C        -14.10412      -29.45844        7.38701
C        -12.83719      -30.11875        7.65641
S        -11.50621      -29.02610        7.30349
C        -12.67568      -31.37155        8.12354
C        -13.74388      -32.30282        8.43822
C        -13.31890      -33.48172        8.91121
C        -11.88559      -33.57259        9.00739
S        -11.10830      -32.11434        8.46402
C        -11.20834      -34.63159        9.45601
H          4.99407       -2.42878       -7.99571
H          3.97269       -3.27720       -6.70569
H          7.41447       -1.57905       -7.29575
H          9.03076       -1.74727       -5.34855
H         10.19697       -2.39621       -3.38563
H         11.02196       -3.70611       -1.38222
H         10.21335       -5.58432        0.22481
H          7.47246       -5.11631        2.21719
H          5.94768       -7.54838        3.88479
H          4.67000       -6.75491        2.88553
H          3.52874       -9.77528        3.56715
H          3.27708      -12.52804        0.80656
H          3.20372      -12.13158        3.87293
H          2.94895      -14.88446        1.10920
H          0.47966      -17.07888        0.78388
H          1.75702      -17.90725        1.75284
H         -1.05100      -19.48437        2.44144
H         -3.19580      -18.86573        5.74704
H         -2.56450      -20.77889        3.39973
H         -2.86098      -22.43771        6.30912
H         -5.02489      -24.92482        6.80448
H         -5.38085      -23.72645        8.10687
H         -8.17328      -25.51966        7.72989
H        -11.38350      -23.98086        6.08170
H        -10.10102      -26.68911        6.76897
H        -13.04082      -25.74005        6.43967
H        -14.82101      -27.53916        6.76693
H        -15.06169      -29.94227        7.50073
H        -14.78990      -32.06908        8.30638
H        -13.97642      -34.28997        9.19715
H        -11.71670      -35.52974        9.78898
H        -10.12367      -34.62989        9.50401
