91

C         -3.49676      -12.15664       -0.46465
C         -2.48503      -11.37102       -0.09072
C         -2.60509      -10.18609        0.71398
C         -1.43202       -9.58081        0.94415
C         -0.29674      -10.23860        0.31722
S         -0.83430      -11.68316       -0.54271
C          0.97604       -9.79252        0.32552
C          1.45646       -8.60070        1.00064
C          2.68853       -8.22879        0.62753
C          3.26650       -9.10363       -0.36686
S          2.29670      -10.54203       -0.57081
C          4.34858       -8.88329       -1.12535
C          5.09973       -7.62314       -1.12998
C          4.79346       -6.55276       -1.98082
C          5.53731       -5.31929       -1.95472
N          5.17734       -4.34977       -2.82599
C          4.09683       -4.52029       -3.63654
C          3.40239       -5.69997       -3.65104
N          3.75852       -6.72297       -2.83548
C          2.28512       -5.93892       -4.51657
N          1.39004       -6.11116       -5.23505
C          3.72095       -3.38487       -4.42862
N          3.40029       -2.47307       -5.06790
C          6.61634       -5.09494       -1.04891
C          6.92254       -6.17312       -0.15173
C          6.15934       -7.46355       -0.21142
N          6.58756       -8.37862        0.67455
S          7.81985       -7.68969        1.52830
N          7.84904       -6.19855        0.82324
C          7.41639       -3.85220       -0.98597
S          9.09500       -3.81357       -0.54625
C          9.27620       -2.08935       -0.69144
C          8.08186       -1.62997       -1.15067
C          7.07728       -2.57464       -1.27443
O          5.85793       -2.12142       -1.68664
C          6.17371       -0.80562       -1.92896
N          5.13104       -0.05273       -2.54751
O          5.45635        0.62592       -3.52953
O          4.00729       -0.12203       -2.03473
C          7.47403       -0.43082       -1.58755
C         10.50594       -1.39603       -0.33122
S         10.40605        0.19679        0.31313
C         12.09584        0.32075        0.59496
C         12.75305       -0.80862        0.11695
C         11.83557       -1.82057       -0.36631
C         12.21551       -3.13550       -0.79439
C         12.49561       -3.48619       -2.05650
O         14.11482       -0.78978        0.17860
C         14.83545       -1.93479       -0.22034
C         12.59018        1.51078        1.23406
C         13.72090        1.51453        1.96441
C         14.24881        2.68682        2.64588
C         15.38962        2.77900        3.35650
C         15.99596        3.93844        4.07569
C         15.41072        5.12959        4.36970
C         16.07472        6.17466        5.07257
N         16.60441        7.03779        5.64291
C         14.06770        5.45431        4.02032
N         12.97835        5.73629        3.73765
C         17.38507        3.52097        4.48200
C         17.58240        2.20008        4.08231
C         16.37688        1.64645        3.46753
O         16.26192        0.47934        3.15547
C         18.77008        1.49101        4.25417
C         19.83440        2.13464        4.91651
C         19.64175        3.44847        5.36564
C         18.42789        4.15929        5.14664
S         21.04642        4.02926        6.19158
C         21.87542        2.58038        5.93879
C         21.14986        1.65499        5.23829
Br        23.61416        2.26747        6.56224
H         -4.51908      -11.94328       -0.17427
H         -3.32880      -13.03869       -1.07521
H         -3.55479       -9.82298        1.08118
H         -1.34878       -8.66725        1.51532
H          0.87370       -8.05396        1.72783
H          3.19549       -7.36177        1.02464
H          4.66981       -9.61640       -1.86074
H          7.89857        0.55824       -1.68706
H         12.29242       -3.89075       -0.01307
H         12.45864       -2.77086       -2.87155
H         12.80409       -4.50132       -2.28648
H         14.64442       -2.78076        0.44677
H         15.90045       -1.69389       -0.14112
H         14.65860       -2.17665       -1.26969
H         12.00144        2.42044        1.13989
H         14.27426        0.58829        2.08224
H         13.60649        3.55038        2.51742
H         18.86087        0.46995        3.89316
H         18.37075        5.17507        5.52326
H         21.51846        0.67040        4.97536
