88

C          9.08501      -18.41348        2.44737
C          8.81670      -17.11864        2.26479
C          7.71512      -16.62812        1.48432
C          7.77975      -15.31067        1.26781
C          8.93505      -14.66196        1.87283
S          9.78882      -15.81043        2.90110
C          9.29914      -13.38783        1.63077
C          8.72452      -12.57411        0.57386
C          9.17189      -11.31565        0.53835
C         10.09061      -11.01094        1.60546
S         10.54289      -12.47055        2.47622
C         10.53419       -9.79116        1.94546
C         10.12376       -8.53577        1.28967
C          9.01596       -7.76186        1.68224
C          8.69232       -6.50382        1.05425
N          7.58381       -5.83694        1.46336
C          6.79097       -6.37762        2.43135
C          7.11034       -7.56870        3.01636
N          8.22980       -8.25546        2.66517
C          6.26696       -8.19835        3.97360
N          5.53267       -8.69287        4.72799
C          5.57018       -5.66359        2.71196
N          4.57614       -5.11579        2.92863
C          9.47855       -5.95065        0.01339
C         10.52478       -6.78495       -0.49810
C         10.85932       -8.09155        0.16366
N         11.88034       -8.73554       -0.42644
S         12.35459       -7.82115       -1.71770
N         11.29840       -6.56107       -1.57563
C          9.31018       -4.58825       -0.52686
S         10.67450       -3.59526       -0.99962
C          9.71519       -2.19228       -1.37394
C          8.43520       -2.52362       -1.11017
C          8.21638       -3.80634       -0.66781
N          6.89646       -4.02682       -0.42213
N          6.16078       -2.90243       -0.68414
C          7.09926       -1.99839       -1.10051
C         10.33406       -1.00072       -1.82310
C          9.79493        0.18955       -1.52511
C         10.40778        1.40293       -1.92296
S         10.17288        2.80422       -0.95685
C         11.17177        3.77427       -1.95779
C         11.63781        3.03682       -3.03042
C         11.19955        1.68772       -3.01623
C         11.39888        5.13500       -1.60831
C         12.20183        5.89855       -2.36151
C         12.49955        7.27756       -2.07018
C         13.61156        7.92325       -2.45686
C         14.03763        9.30447       -2.14705
C         13.23669       10.37943       -1.94964
C         13.74269       11.69374       -1.76414
N         14.15646       12.76766       -1.61051
C         11.81164       10.29587       -1.97138
N         10.65194       10.23219       -1.98055
C         15.52425        9.32052       -2.28063
C         15.93228        8.12721       -2.88964
C         14.78704        7.23572       -3.10003
O         14.84658        6.16040       -3.65813
C         17.25291        7.81988       -3.18030
C         18.23497        8.74851       -2.82788
C         17.85916        9.95583       -2.17545
C         16.50238       10.22818       -1.90074
C         18.85889       10.86667       -1.80761
C         20.20205       10.60247       -2.08104
C         20.56532        9.42315       -2.72524
C         19.58837        8.49918       -3.09535
H          8.46119      -19.18271        2.00142
H          9.94594      -18.74600        3.01636
H          6.92435      -17.26232        1.10961
H          7.02160      -14.77176        0.71892
H          8.04751      -12.96977       -0.16852
H          8.88252      -10.60723       -0.22247
H         11.21973       -9.66755        2.78055
H          6.46497       -4.85030       -0.02114
H          6.77017       -1.00066       -1.36322
H         11.27075       -1.08036       -2.37026
H          8.89638        0.26170       -0.91877
H         12.27726        3.44132       -3.80556
H         11.46068        0.96768       -3.78113
H         10.93909        5.53052       -0.70591
H         12.67044        5.48655       -3.25030
H         11.74116        7.76866       -1.46701
H         17.50035        6.87200       -3.65063
H         16.25754       11.14562       -1.37577
H         18.60133       11.79680       -1.30446
H         20.96440       11.32066       -1.79067
H         21.61213        9.22102       -2.93867
H         19.89498        7.58186       -3.59458
