86

C         15.96771       -4.57268       -2.38421
C         15.03797       -3.99290       -1.62253
C         15.09998       -2.65504       -1.09966
C         14.00745       -2.30497       -0.40624
C         12.98217       -3.33747       -0.36145
S         13.56790       -4.79938       -1.16252
C         11.73890       -3.19824        0.13791
C         11.20055       -2.01456        0.78389
C          9.87297       -2.05109        0.96336
C          9.25815       -3.25970        0.45250
S         10.47699       -4.42207       -0.00822
C          7.93455       -3.40821        0.30144
C          7.33187       -4.53048       -0.34108
S          7.15087       -4.52156       -2.05359
C          6.31280       -6.00968       -2.05859
C          5.83100       -6.54910       -3.30449
O          6.10761       -6.21683       -4.44771
O          4.93508       -7.54210       -3.09539
C          6.18458       -6.51880       -0.78190
C          6.80917       -5.69323        0.19641
O          6.88122       -5.91516        1.52847
C          6.92677       -7.19121        2.03987
C          7.22647       -7.37306        3.32694
C          7.39215       -8.65253        3.99157
C          7.85487       -8.78983        5.24559
C          8.11171      -10.03947        5.92529
C          8.78564       -9.89364        7.07976
C          9.13250       -8.51206        7.37987
S          8.31115       -7.44285        6.25628
C         10.00569       -8.06085        8.29886
C         10.75011       -8.84569        9.26467
C         11.73275       -8.16240        9.87364
C         11.85907       -6.79126        9.40942
S         10.50550       -6.36926        8.39773
C         12.91002       -6.00209        9.66685
C         13.10815       -4.73251        9.03580
S         12.33425       -3.31189        9.62558
C         13.03261       -2.32653        8.41465
C         12.80434       -0.89778        8.33931
O         13.53905       -0.09886        7.77616
O         11.64417       -0.51417        8.92834
C         13.83816       -3.06289        7.57317
C         13.90982       -4.43464        7.94428
O         14.61043       -5.42275        7.33066
C         15.46116       -5.16862        6.28144
C         16.47306       -4.28516        6.26163
C         17.34987       -4.07006        5.12741
C         18.05054       -4.99226        4.45057
C         18.87720       -4.70535        3.30162
C         19.29307       -5.80642        2.65843
C         18.80410       -7.04306        3.24781
S         18.06370       -6.70087        4.80583
C         18.80786       -8.26145        2.67479
C         19.32136       -8.58287        1.35562
C         18.99985       -9.81392        0.93366
C         18.22479      -10.55765        1.89335
S         18.05100       -9.69040        3.38972
C         17.66993      -11.75350        1.68433
H         16.87000       -4.04944       -2.67860
H         15.84267       -5.58898       -2.74581
H         15.94190       -1.99950       -1.27218
H         13.88190       -1.32608        0.03320
H         11.80788       -1.16850        1.07318
H          9.30182       -1.24160        1.39674
H          7.26240       -2.61305        0.60872
H          4.66510       -7.78295       -4.00525
H          5.66355       -7.44450       -0.57299
H          6.76636       -7.99731        1.34281
H          7.40639       -6.47050        3.90753
H          7.16671       -9.53990        3.40572
H          7.81911      -10.99568        5.51492
H          9.09726      -10.72590        7.69413
H         10.54336       -9.88742        9.45899
H         12.40611       -8.59381       10.59990
H         13.73323       -6.37249       10.27087
H         11.14542       -1.28337        9.26616
H         14.34875       -2.61107        6.73079
H         15.24014       -5.85698        5.47321
H         16.64566       -3.63722        7.11505
H         17.43185       -3.02573        4.83025
H         19.10327       -3.69745        2.98210
H         19.89344       -5.77450        1.76089
H         19.88202       -7.88363        0.75243
H         19.26903      -10.21226       -0.03387
H         17.76962      -12.26859        0.73592
H         17.07858      -12.24131        2.45372
