83

C          9.70847      -10.64387       -5.64422
C          8.88061      -10.00741       -4.81474
C          7.51552       -9.63759       -5.08311
C          7.01381       -8.78106       -4.18081
C          7.98767       -8.37957       -3.17859
S          9.39761       -9.44238       -3.25692
C          7.95251       -7.25585       -2.44304
C          6.89954       -6.25114       -2.41852
C          7.33690       -5.03916       -2.03646
C          8.76309       -5.02470       -1.79181
S          9.35311       -6.65157       -1.57069
C          9.53746       -3.92793       -1.87944
C         10.95401       -4.01792       -2.04843
S         11.52577       -4.08040       -3.68507
C         13.15332       -4.14680       -3.20724
C         13.29207       -4.07910       -1.83425
N         14.59376       -4.07742       -1.21020
O         15.53607       -4.55433       -1.85683
O         14.66199       -3.61730       -0.06192
C         12.02110       -4.03266       -1.15569
N         11.95887       -3.97693        0.20716
C         10.97943       -4.37840        1.07855
C         11.11405       -4.36587        2.40664
N         10.19967       -4.72630        3.36396
C         10.38836       -4.61563        4.70725
S          9.78176       -5.86302        5.72897
C         10.58281       -5.23269        7.08048
N         10.59472       -5.94762        8.32951
O         11.24618       -5.43261        9.24872
O          9.97499       -7.01629        8.40307
C         11.18161       -4.02090        6.82434
C         11.04280       -3.63401        5.44973
C         11.61971       -2.41036        4.94942
C         11.14237       -1.61389        3.96935
C         11.86571       -0.45782        3.50953
S         12.58844        0.59786        4.67808
C         13.32009        1.54704        3.48576
C         12.97524        1.14128        2.21679
N         13.59268        1.80156        1.11323
O         13.19216        2.94563        0.86300
O         14.55094        1.21839        0.59395
C         12.07516        0.01860        2.20132
N         11.54393       -0.63690        1.11844
C         11.50501       -0.37423       -0.23953
C         11.51547        0.72999       -0.99792
C         11.51389        0.65500       -2.45210
C         12.55871        0.92254       -3.25560
C         12.55246        0.74814       -4.68875
C         13.76209        0.90340       -5.25451
C         14.81747        1.24895       -4.31498
S         14.12040        1.48337       -2.71250
C         16.13029        1.36660       -4.59431
C         16.76076        1.07123       -5.86969
C         18.08079        1.30896       -5.89803
C         18.58874        1.83222       -4.65692
S         17.35169        1.89829       -3.43054
C         19.84242        2.24110       -4.44637
H          9.40077      -10.94748       -6.63747
H         10.73834      -10.84466       -5.36017
H          6.97822       -9.98963       -5.95194
H          6.02225       -8.35581       -4.24936
H          5.88449       -6.45048       -2.73290
H          6.72395       -4.14944       -2.02303
H          9.08280       -2.95810       -2.06201
H         13.93536       -4.21622       -3.95277
H         12.84416       -3.78280        0.69678
H         10.05223       -4.72041        0.63906
H         12.06219       -4.02952        2.82321
H          9.51003       -5.40112        3.03450
H         11.70992       -3.44367        7.57590
H         12.55265       -2.13141        5.43880
H         10.21805       -1.86679        3.45620
H         13.98868        2.35295        3.76041
H         11.19048       -1.58159        1.29554
H         11.41101       -1.31893       -0.77134
H         11.52532        1.72792       -0.57530
H         10.58608        0.29507       -2.88878
H         11.66242        0.49612       -5.24541
H         13.93190        0.80515       -6.31676
H         16.22521        0.66613       -6.71597
H         18.71271        1.12978       -6.75672
H         20.59273        2.20195       -5.22828
H         20.15063        2.64290       -3.48570
