77

C         -0.99416       -2.23189       -3.05099
C          0.24208       -2.20777       -2.54845
C          1.25186       -1.23195       -2.85744
C          2.42526       -1.47043       -2.25621
C          2.42893       -2.66135       -1.42199
S          0.82030       -3.39973       -1.42386
C          3.48971       -3.17359       -0.76979
C          4.84682       -2.66171       -0.77924
C          5.73779       -3.46009       -0.16823
C          5.15532       -4.66982        0.37384
S          3.41584       -4.63505        0.19812
C          5.86859       -5.66461        0.93015
C          5.28787       -6.88379        1.39693
O          4.18539       -7.44087        0.79812
C          3.79109       -8.57757        1.44143
C          4.70775       -8.80500        2.44599
C          5.66372       -7.73695        2.42676
C          6.79998       -7.61633        3.37043
F          7.52561       -6.48218        3.20025
F          6.37879       -7.62106        4.66177
F          7.66619       -8.65486        3.24157
C          2.64125       -9.32670        1.07659
C          2.17618       -9.26108       -0.18056
C          1.00476       -9.95710       -0.71352
C          0.28493       -9.42882       -1.80554
C         -0.84773      -10.06110       -2.38136
C         -1.35659      -11.30002       -1.94212
C         -0.65025      -11.86028       -0.83670
C          0.51518      -11.19241       -0.22949
N          0.96548      -11.97441        0.76479
O          0.12488      -13.06479        0.81125
N         -0.84720      -13.00493       -0.16077
C         -2.51955      -11.96175       -2.52144
O         -3.24044      -12.67958       -1.61358
C         -4.30225      -13.28663       -2.22540
C         -4.26658      -12.91839       -3.55540
C         -3.14457      -12.05061       -3.75836
C         -2.82410      -11.46326       -5.07940
F         -1.72497      -10.67393       -5.09340
F         -2.62428      -12.42814       -6.01527
F         -3.85539      -10.70130       -5.53525
C         -5.22982      -14.12721       -1.56337
C         -5.09454      -14.40964       -0.25856
C         -6.00275      -15.27559        0.45909
C         -6.24274      -16.57155        0.18878
C         -7.18242      -17.38800        0.91179
C         -7.28484      -18.63805        0.43473
C         -6.42271      -18.90802       -0.70474
S         -5.45471      -17.48639       -1.07246
C         -6.36219      -20.05515       -1.40663
C         -7.16009      -21.24500       -1.16596
C         -6.94102      -22.23687       -2.04049
C         -5.94875      -21.91089       -3.03213
S         -5.29752      -20.31658       -2.79466
C         -5.55910      -22.71192       -4.02617
H         -1.33694       -1.48307       -3.75549
H         -1.69931       -3.01013       -2.77431
H          1.06946       -0.39504       -3.51768
H          3.29128       -0.83821       -2.38684
H          5.12467       -1.73358       -1.25728
H          6.79502       -3.24151       -0.10484
H          6.94762       -5.56483        1.01024
H          4.69698       -9.65130        3.12152
H          2.16272       -9.92759        1.84209
H          2.68626       -8.61964       -0.90017
H          0.59971       -8.47108       -2.22507
H         -1.34364       -9.52907       -3.19159
H         -4.97150      -13.23771       -4.31356
H         -6.04297      -14.55362       -2.14412
H         -4.28639      -13.97618        0.32843
H         -6.50398      -14.80119        1.29846
H         -7.75393      -17.01273        1.74965
H         -7.95226      -19.37308        0.85879
H         -7.87530      -21.32447       -0.36094
H         -7.45282      -23.18667       -2.01828
H         -5.98353      -23.70085       -4.15765
H         -4.80377      -22.39854       -4.74040
