107

C          6.77071      -11.25902      -12.13959
C          6.69610      -10.10274      -11.47729
C          6.95320       -8.80009      -12.02937
C          6.84528       -7.81036      -11.13097
C          6.49755       -8.26420       -9.79297
S          6.27449      -10.01831       -9.79359
C          6.38612       -7.49644       -8.69167
C          6.59194       -6.06113       -8.61280
C          6.51942       -5.56631       -7.36862
C          6.26175       -6.57065       -6.36317
S          5.99559       -8.13305       -7.09572
C          6.26474       -6.32857       -5.04456
C          6.05284       -7.35526       -4.08808
O          4.79857       -7.65768       -3.63295
C          4.85645       -8.71584       -2.77015
C          6.19061       -9.04614       -2.60722
C          6.95786       -8.21847       -3.47880
C          8.42234       -8.31491       -3.69028
F          8.90016       -7.44359       -4.61383
F          9.10477       -8.07117       -2.54018
F          8.78723       -9.55885       -4.09652
C          3.72146       -9.32419       -2.17906
C          2.45948       -8.93792       -2.46049
C          1.29924       -9.49632       -1.81231
C          1.45101       -9.97700       -0.52376
S          0.04592      -10.64105        0.10603
C         -0.83664      -10.26114       -1.30812
C         -0.08760       -9.62739       -2.29904
C         -0.80174       -9.30802       -3.51656
C         -0.09087       -8.67146       -4.72204
C         -0.07714       -7.14426       -4.75254
C         -2.24878       -9.64765       -3.63715
C         -2.94786       -9.37453       -4.96871
C         -2.85180      -10.58404       -5.89430
C         -2.96729      -10.29922       -2.55535
C         -4.35613      -10.77004       -2.30548
C         -4.47861      -11.38742       -1.07402
S         -3.05503      -11.38210       -0.18347
C         -2.20017      -10.58252       -1.42920
C         -5.53590      -10.71319       -3.14224
C         -6.80650      -10.59847       -2.67892
C         -7.98463      -10.58437       -3.50835
S         -7.88525       -9.98602       -5.12640
C         -9.54340      -10.16769       -5.39809
C        -10.22432      -10.67884       -4.31389
C        -11.71277      -10.85422       -4.33704
C         -9.31139      -10.94800       -3.21188
C         -9.70841      -11.48216       -1.92498
C        -10.71404      -12.34478       -1.70112
C        -11.12294      -12.82091       -0.40220
C        -10.30937      -13.50307        0.41196
C        -10.74937      -13.99478        1.69349
C        -10.17738      -13.69868        2.86895
C        -10.49076      -14.19602        4.22462
C        -11.68655      -14.65120        4.67437
C        -11.91730      -15.00734        6.03920
N        -12.10401      -15.29450        7.13854
C        -12.84328      -14.73575        3.84425
N        -13.78246      -14.79989        3.16915
C         -9.28772      -13.91007        5.06209
C         -8.43738      -13.06241        4.34851
C         -8.94650      -12.84037        2.98810
O         -8.42868      -12.12178        2.15886
C         -7.24481      -12.55275        4.85008
C         -6.86384      -12.94004        6.15399
C         -7.68754      -13.83080        6.85887
C         -8.89953      -14.33594        6.32633
S         -7.02291      -14.20162        8.40949
C         -5.70108      -13.18484        8.15553
C         -5.71130      -12.57378        6.93029
Br        -4.35277      -12.92470        9.42896
H          7.04063      -11.30113      -13.18822
H          6.56841      -12.20374      -11.64301
H          7.21581       -8.64969      -13.06690
H          7.01468       -6.77269      -11.37844
H          6.80116       -5.44433       -9.47491
H          6.66094       -4.52243       -7.12419
H          6.43803       -5.32856       -4.66241
H          6.57551       -9.83218       -1.96822
H          3.92166      -10.13031       -1.47966
H          2.30163       -8.14045       -3.17968
H          2.33730       -9.98464        0.09556
H          0.93492       -9.04728       -4.78852
H         -0.53603       -9.01833       -5.65835
H          0.58187       -6.72622       -3.98649
H         -1.07441       -6.71512       -4.61366
H          0.29463       -6.79856       -5.72629
H         -2.55096       -8.48379       -5.46779
H         -3.99644       -9.12338       -4.78996
H         -1.82946      -10.74364       -6.25510
H         -3.49296      -10.44956       -6.77092
H         -3.16009      -11.49988       -5.38083
H         -5.35153      -11.85356       -0.63686
H         -5.37051      -10.83778       -4.20878
H         -6.97773      -10.50462       -1.60996
H         -9.96081       -9.86764       -6.34888
H        -12.13514      -10.52568       -5.29300
H        -12.18291      -10.26263       -3.54515
H        -11.99712      -11.90306       -4.22835
H         -9.13826      -11.14798       -1.05802
H        -11.32021      -12.74068       -2.50600
H        -12.15899      -12.62762       -0.12706
H         -9.28000      -13.70687        0.12396
H        -11.59429      -14.67329        1.61858
H         -6.62745      -11.88926        4.25003
H         -9.47225      -15.03998        6.91844
H         -4.94106      -11.89276        6.58835
