79

C          7.43155      -12.34583       -9.97187
C          8.06476      -11.88384       -8.89534
C          9.48692      -11.69504       -8.78882
C          9.87023      -11.20292       -7.60335
C          8.77476      -10.97220       -6.67213
S          7.24318      -11.42839       -7.42941
C          8.89002      -10.49627       -5.41631
C         10.11899      -10.09493       -4.76358
C          9.96011       -9.69634       -3.48830
C          8.59073       -9.75611       -3.01617
S          7.53877      -10.28247       -4.30847
C          8.23978       -9.44898       -1.75344
C          6.96198       -9.47110       -1.08495
C          5.74282       -9.83533       -1.62816
O          4.74583       -9.76368       -0.70702
C          5.32926       -9.34531        0.43923
N          4.46077       -9.30945        1.56040
O          4.74579      -10.05440        2.50746
O          3.51024       -8.51966        1.50674
C          6.68058       -9.12013        0.28629
C          7.58435       -8.67452        1.30018
C          7.32734       -7.73798        2.22977
N          8.20121       -7.31113        3.21552
C          8.93313       -6.15028        3.13829
S          8.47450       -4.81345        2.13648
C          9.86474       -3.95424        2.54295
N         10.06352       -2.65108        2.00305
O         10.19348       -1.73346        2.82314
O         10.12726       -2.55213        0.77172
C         10.68224       -4.60361        3.43090
C         10.13755       -5.87885        3.79085
C         10.74190       -6.77916        4.73732
C         12.06354       -6.91189        4.96353
C         12.67019       -7.78355        5.92854
C         11.97285       -8.64680        6.75269
O         12.81678       -9.39574        7.50050
C         14.07799       -9.00159        7.17592
N         15.11441       -9.71212        7.86979
O         16.28553       -9.41387        7.60092
O         14.76937      -10.58180        8.68120
C         14.06337       -7.97683        6.24124
C         15.22839       -7.32021        5.72293
C         15.32033       -6.04466        5.31217
C         16.56398       -5.49259        4.81120
C         16.75417       -5.00613        3.57691
C         18.03397       -4.58215        3.06197
C         18.05060       -4.45000        1.72750
C         16.77312       -4.74489        1.09608
S         15.52906       -4.93385        2.33667
C         16.55257       -4.93730       -0.21891
C         17.55839       -4.93759       -1.26814
C         17.08825       -5.29337       -2.47267
C         15.67551       -5.57352       -2.47163
S         14.97068       -5.33285       -0.90082
C         14.95992       -5.98058       -3.52237
H          7.96686      -12.62081      -10.87574
H          6.34904      -12.45866       -9.99006
H         10.16763      -11.93427       -9.59370
H         10.90492      -11.00829       -7.36156
H         11.08211      -10.10872       -5.25255
H         10.77934       -9.36824       -2.86785
H          9.06381       -9.13572       -1.11066
H          5.41044      -10.16992       -2.60016
H          8.58617       -9.09506        1.28282
H          6.38065       -7.19871        2.27270
H          8.71043       -8.10076        3.61001
H         11.60558       -4.18110        3.81066
H         10.04651       -7.38495        5.31374
H         12.73933       -6.32686        4.34493
H         10.92342       -8.85792        6.90978
H         16.14205       -7.91483        5.67693
H         14.47236       -5.36727        5.33061
H         17.41111       -5.56421        5.49211
H         18.89943       -4.43634        3.69415
H         18.93818       -4.17749        1.17418
H         18.60080       -4.71344       -1.09153
H         17.69857       -5.37868       -3.36109
H         15.41272       -6.13742       -4.49458
H         13.89399       -6.16941       -3.43544
