117

C         13.29452      -10.59236       -5.09374
C         12.37076       -9.64892       -5.28827
C         12.50033       -8.51421       -6.16196
C         11.45125       -7.68025       -6.10818
C         10.41348       -8.09530       -5.17483
S         10.83999       -9.65802       -4.46524
C          9.31196       -7.39631       -4.83607
C          8.93792       -6.08212       -5.32816
C          7.88584       -5.54250       -4.69518
C          7.34622       -6.38472       -3.65290
S          8.13396       -7.94078       -3.63918
C          6.39181       -5.99578       -2.79412
C          5.85830       -6.81879       -1.70435
C          4.72469       -7.60133       -1.93646
C          4.25667       -8.40957       -0.91444
C          4.88587       -8.41709        0.35258
C          5.99869       -7.62798        0.59521
C          6.48817       -6.82959       -0.44904
C          4.17235       -9.31030        1.23230
C          3.08304       -9.86167        0.52970
C          3.05299       -9.35698       -0.92339
C          3.29758      -10.58183       -1.85812
C          3.27609      -10.31684       -3.36101
C          1.71874       -8.63608       -1.24216
C          1.42454       -7.38793       -0.40927
C          2.21245      -10.74502        1.14299
C          2.46234      -11.12248        2.46613
C          3.54134      -10.55782        3.17292
C          4.40345       -9.64563        2.55603
C          1.57563      -12.06107        3.15460
C          0.97229      -13.08316        2.52655
C          0.02839      -14.02072        3.14893
C         -0.34649      -13.91599        4.49554
C         -1.20745      -14.85083        5.04628
C         -1.73213      -15.87729        4.24229
C         -1.41748      -15.96787        2.89525
C         -0.52616      -15.04118        2.35367
C         -2.55130      -16.73699        5.05536
C         -2.57063      -16.25400        6.38239
C         -1.73722      -14.95087        6.49474
C         -2.62487      -13.70743        6.78823
C         -3.38393      -13.72362        8.11151
C         -0.58234      -15.14397        7.52036
C          0.34631      -13.95213        7.76405
C         -3.25709      -16.96157        7.36734
C         -3.93566      -18.13886        7.01310
C         -3.89952      -18.60852        5.68878
C         -3.21138      -17.90438        4.70117
C         -4.79122      -18.82480        7.98467
C         -4.46950      -19.81352        8.83340
C         -3.16315      -20.45911        9.01929
C         -2.71694      -21.57278        8.28682
C         -1.45946      -22.21631        8.58258
N         -1.09537      -23.28926        7.84600
C         -1.88887      -23.73531        6.84465
C         -3.08636      -23.12700        6.57682
N         -3.51183      -22.05556        7.29705
C         -3.94314      -23.57178        5.51732
N         -4.59721      -23.96073        4.64608
C         -1.38408      -24.85725        6.11453
N         -0.97016      -25.77034        5.51954
C         -0.58827      -21.78595        9.61950
C         -1.02248      -20.65236       10.37857
C         -2.34380      -19.99229       10.08072
N         -2.62795      -18.97853       10.91853
S         -1.35472      -18.83716       11.96046
N         -0.37743      -20.03589       11.38720
C          0.69312      -22.47682        9.98651
C          1.47367      -23.06126        9.05783
N          1.16516      -22.47239       11.28046
N          0.36610      -22.82483       12.17001
H         14.25045      -10.56997       -5.60378
H         13.12097      -11.41329       -4.40376
H         13.36891       -8.35680       -6.78579
H         11.39488       -6.77330       -6.69290
H          9.47345       -5.56705       -6.11230
H          7.48736       -4.56113       -4.91130
H          5.95642       -5.00348       -2.86009
H          4.22894       -7.57718       -2.90006
H          6.48479       -7.62384        1.56290
H          7.37044       -6.22125       -0.27195
H          2.53732      -11.34960       -1.66081
H          4.26257      -11.04778       -1.61374
H          2.29564       -9.96853       -3.69790
H          3.49640      -11.24278       -3.90272
H          4.03155       -9.59185       -3.66667
H          0.88306       -9.33591       -1.11352
H          1.70240       -8.32569       -2.29301
H          1.43929       -7.59423        0.66466
H          0.43072       -7.00294       -0.66013
H          2.14352       -6.59032       -0.62024
H          1.35858      -11.13149        0.59691
H          3.72264      -10.83639        4.20998
H          5.23360       -9.22333        3.11274
H          1.44202      -11.86490        4.21316
H          1.17153      -13.26389        1.47341
H          0.02780      -13.11117        5.10998
H         -1.83871      -16.74532        2.26602
H         -0.26664      -15.12231        1.29941
H         -3.35992      -13.56858        5.98358
H         -2.00588      -12.80040        6.77092
H         -4.16396      -14.48900        8.11465
H         -3.88952      -12.76450        8.26550
H         -2.72102      -13.89057        8.96464
H          0.04045      -15.99619        7.21691
H         -1.00580      -15.41743        8.49443
H          0.90664      -13.66588        6.87329
H          1.09883      -14.21474        8.51497
H         -0.19440      -13.07672        8.13440
H         -3.29118      -16.60127        8.39114
H         -4.42757      -19.51941        5.41650
H         -3.19731      -18.26732        3.67919
H         -5.81580      -18.45458        7.98869
H         -5.24587      -20.18412        9.50128
H          1.24562      -23.08279        7.99965
H          2.38786      -23.57089        9.34794
H          0.79203      -22.70536       13.09886
