145

C          4.06544       -5.05066       15.45126
C          4.97736       -5.95561       15.09030
C          6.31543       -6.05285       15.60769
C          7.05334       -6.99567       15.00202
C          6.34652       -7.70954       13.94800
S          4.66346       -7.16726       13.88523
C          6.87489       -8.59573       13.08032
C          8.26378       -9.01568       13.00740
C          8.56438       -9.69407       11.88932
C          7.43662       -9.86359       10.99887
S          5.96143       -9.33898       11.76358
C          7.53315      -10.30512        9.73558
C          6.42989      -10.38900        8.76935
C          5.72495      -11.58499        8.60726
C          4.71492      -11.62951        7.65177
C          4.38182      -10.49302        6.88034
C          5.07229       -9.30589        7.04337
C          6.10098       -9.26088        7.98716
C          3.30032      -10.83133        5.98484
C          2.95035      -12.17572        6.17339
C          3.82542      -12.80970        7.26132
C          2.98685      -13.31359        8.46751
C          2.17156      -12.24996        9.20285
C          4.65112      -13.99391        6.67967
C          5.60525      -13.64624        5.53569
C          1.96802      -12.77926        5.40234
C          1.34575      -12.02363        4.40214
C          1.66000      -10.65899        4.25174
C          2.64577      -10.05225        5.03772
C          0.33269      -12.60273        3.51684
C          0.26694      -13.90555        3.20278
C         -0.76935      -14.51133        2.34770
C         -0.34807      -15.61638        1.58524
C         -1.23994      -16.29432        0.75768
O         -0.84794      -17.47046        0.17272
C          0.01999      -17.38237       -0.88648
C          0.56982      -18.47531       -1.42066
O          1.28394      -18.46240       -2.59628
C          0.53275      -18.81255       -3.69503
C          0.28608      -17.95360       -4.68490
O         -0.72249      -18.12445       -5.60660
C         -1.93238      -17.53804       -5.28002
C         -2.55279      -17.67883       -4.10198
O         -3.70545      -17.02177       -3.74451
C         -3.98420      -17.02530       -2.39811
C         -3.30272      -16.31509       -1.49552
O         -3.49151      -16.46840       -0.14686
C         -2.56181      -15.85854        0.65689
C         -3.00608      -14.80046        1.44273
C         -2.13213      -14.11778        2.30419
C         -2.69905      -13.08683        3.19711
C         -3.71799      -12.27559        2.86710
C         -4.25778      -11.23279        3.74920
C         -5.63035      -10.93595        3.67502
C         -6.13912       -9.92152        4.47371
C         -5.29233       -9.21334        5.35042
C         -3.93612       -9.47934        5.41549
C         -3.41955      -10.48636        4.60134
C         -6.06783       -8.23618        6.07359
C         -7.40845       -8.29690        5.64562
C         -7.58187       -9.37556        4.56737
C         -8.53319      -10.51910        5.02956
C         -9.97639      -10.12150        5.33668
C         -8.05004       -8.75595        3.22297
C         -7.13071       -7.68923        2.62646
C         -8.35477       -7.42519        6.16710
C         -7.96898       -6.53168        7.17535
C         -6.62302       -6.47825        7.58316
C         -5.66450       -7.33016        7.03087
C         -8.98522       -5.65009        7.75509
C         -8.93872       -5.20224        9.01930
C         -9.94457       -4.33971        9.59613
C        -11.23652       -4.63594        9.78117
C        -12.18418       -3.72395       10.36826
C        -13.40725       -4.24880       10.52088
C        -13.51981       -5.62840       10.07636
S        -11.98757       -6.16612        9.39805
C        -14.61556       -6.40418       10.17868
C        -15.88946       -5.99756       10.74785
C        -16.80600       -6.97160       10.78529
C        -16.33067       -8.22019       10.24795
S        -14.69779       -8.09158        9.66221
C        -17.03475       -9.35477       10.19907
H          4.27753       -4.29197       16.19547
H          3.07834       -5.03663       14.99793
H          6.67962       -5.41063       16.39791
H          8.08478       -7.18643       15.26012
H          9.00014       -8.76719       13.75872
H          9.55779      -10.04451       11.64429
H          8.49973      -10.58018        9.32417
H          5.95446      -12.45822        9.20972
H          4.82913       -8.43155        6.44927
H          6.65141       -8.33088        8.11543
H          3.65702      -13.78013        9.20185
H          2.29786      -14.10237        8.13821
H          2.80992      -11.46464        9.61894
H          1.63617      -12.70811       10.04116
H          1.42908      -11.78419        8.54875
H          3.96970      -14.77714        6.32066
H          5.24613      -14.45129        7.48039
H          5.07498      -13.23894        4.66980
H          6.13105      -14.54819        5.20479
H          6.36503      -12.92417        5.84892
H          1.71254      -13.82002        5.57232
H          1.15155      -10.05927        3.50093
H          2.89252       -9.00871        4.89209
H         -0.38350      -11.89458        3.11044
H          1.03330      -14.59359        3.55428
H          0.67779      -15.97582        1.65260
H          0.14799      -16.39065       -1.30209
H          0.42389      -19.47283       -1.03165
H          0.01994      -19.75992       -3.58406
H          0.74459      -16.97689       -4.76351
H         -2.30929      -16.93644       -6.09528
H         -2.16590      -18.31470       -3.31603
H         -4.76860      -17.72786       -2.14866
H         -2.52375      -15.61371       -1.78100
H         -4.05784      -14.53705        1.39348
H         -2.23265      -13.00604        4.17731
H         -4.21092      -12.35567        1.90298
H         -6.28290      -11.49107        3.00800
H         -3.27973       -8.91815        6.07146
H         -2.34853      -10.67495        4.63532
H         -8.12634      -11.00869        5.92488
H         -8.56600      -11.29478        4.25219
H        -10.04056       -9.51304        6.24223
H        -10.58273      -11.01303        5.52556
H        -10.44039       -9.57603        4.51069
H         -9.03516       -8.29168        3.35230
H         -8.17760       -9.54916        2.47500
H         -6.99221       -6.84528        3.30875
H         -7.57109       -7.29520        1.70455
H         -6.14792       -8.09658        2.37253
H         -9.37987       -7.44559        5.81477
H         -6.30199       -5.76293        8.33377
H         -4.63239       -7.26928        7.36116
H         -9.82503       -5.39528        7.11100
H         -8.11816       -5.45944        9.68299
H         -9.55781       -3.38177        9.93512
H        -11.92109       -2.71501       10.65472
H        -14.22844       -3.69306       10.94854
H        -16.08135       -5.00127       11.11469
H        -17.80386       -6.84802       11.18147
H        -18.04756       -9.40827       10.57894
H        -16.61021      -10.26331        9.78484
