91

C         12.41181       -5.69211       -2.62491
C         11.83319       -5.72886       -1.42331
C         11.97124       -4.73240       -0.39559
C         11.16727       -4.94190        0.65648
C         10.30552       -6.10346        0.50762
S         10.76362       -7.00992       -0.93813
C          9.23197       -6.39176        1.26624
C          8.74440       -5.62431        2.39857
C          7.47285       -5.90181        2.72347
C          6.88061       -6.90919        1.87297
S          8.09547       -7.68203        0.89402
C          5.56587       -7.15668        1.79386
C          4.87913       -8.11945        0.84254
C          4.07087       -9.25609        1.52388
C          3.53232       -8.95124        2.89245
C          2.94376       -9.53192        0.52618
C          2.55654       -8.14754        0.02024
C          3.88686       -7.39486       -0.11691
C          4.36882       -7.40992       -1.53449
O          4.59174       -8.64237       -2.11821
C          4.64120       -6.45985       -2.46890
C          4.64335       -5.05084       -2.70406
O          4.31654       -4.16232       -1.93449
N          5.07429       -4.93065       -4.01184
C          5.33902       -6.13535       -4.63456
O          5.70065       -6.32111       -5.78273
C          5.06060       -7.11241       -3.62930
C          5.03793       -8.46857       -3.43188
C          5.37870       -9.52247       -4.31794
C          4.92985      -10.76840       -4.11041
C          5.30030      -11.87167       -4.97226
C          5.84172      -13.02445       -4.55167
C          6.29577      -14.07466       -5.43047
C          7.03224      -15.00722       -4.80962
C          7.21684      -14.75982       -3.38768
S          6.20687      -13.40397       -2.88602
C          8.08801      -15.38885       -2.57487
C          9.03574      -16.41489       -2.97114
C          9.95435      -16.69492       -2.03577
C          9.78645      -15.93749       -0.81751
S          8.32478      -14.98283       -0.87321
C         10.66749      -15.92757        0.19368
C         10.52534      -15.15929        1.41555
C         11.34786      -14.17962        1.82153
C         11.21810      -13.25523        2.96902
C         10.65213      -13.52110        4.17269
C         10.67166      -12.60150        5.26208
N         10.69223      -11.85964        6.15487
C         10.05550      -14.78080        4.47274
N          9.57300      -15.80603        4.72268
C         11.99591      -12.03264        2.60739
C         12.75184      -12.30618        1.46402
C         12.48490      -13.67044        0.98027
O         13.08914      -14.23659        0.09314
C         13.59174      -11.38290        0.84913
C         13.67619      -10.09021        1.41609
C         12.90829       -9.80432        2.55530
C         12.05405      -10.75909        3.16110
S         13.15167       -8.17649        3.08154
C         14.25491       -7.87483        1.84194
C         14.44379       -8.94463        1.00832
Br        15.13462       -6.23427        1.63606
H         13.05276       -4.87024       -2.92199
H         12.23914       -6.47623       -3.35630
H         12.64060       -3.88880       -0.48571
H         11.12078       -4.27420        1.50433
H          9.33029       -4.86842        2.90111
H          6.92296       -5.39551        3.50477
H          4.89887       -6.58033        2.43372
H          5.63703       -8.62541        0.23254
H          4.70072      -10.14970        1.61794
H          2.66052       -8.32348        3.03243
H          4.12171       -9.22117        3.76260
H          2.09152      -10.05981        0.96512
H          3.32092      -10.14219       -0.30367
H          1.93135       -7.64569        0.76892
H          1.97799       -8.19747       -0.90808
H          3.73496       -6.34804        0.17454
H          5.15245       -4.04656       -4.48273
H          6.03316       -9.29615       -5.15593
H          4.29126      -10.99996       -3.25936
H          5.17472      -11.69734       -6.03923
H          6.09056      -14.07699       -6.49215
H          7.47605      -15.84478       -5.32775
H          9.03729      -16.87586       -3.94823
H         10.76326      -17.39879       -2.17627
H         11.58880      -16.50174        0.10628
H          9.61523      -15.39288        1.96329
H         14.14657      -11.64827       -0.04685
H         11.46723      -10.45709        4.02046
H         15.10275       -8.93063        0.14873
