100

C        -10.07266       -0.63456       -1.52308
C         -9.20853       -0.80288       -2.52597
C         -9.07758        0.07509       -3.65664
C         -8.15123       -0.32618       -4.53451
C         -7.48215       -1.56524       -4.16750
S         -8.09815       -2.14184       -2.61513
C         -6.54484       -2.19499       -4.90264
C         -6.02728       -1.74140       -6.18132
C         -5.11953       -2.55866       -6.73011
C         -4.84635       -3.73261       -5.93565
S         -5.78198       -3.71664       -4.45499
C         -4.00521       -4.70663       -6.31828
C         -3.83419       -5.90348       -5.56919
S         -2.63034       -6.00981       -4.36669
C         -3.09713       -7.60337       -3.88934
C         -4.13684       -8.06574       -4.69668
C         -4.55652       -7.07782       -5.66327
C         -5.69148       -7.31284       -6.61327
C         -6.65848       -8.29350       -6.02085
O         -7.87396       -8.15614       -6.01702
C         -6.02436       -9.56076       -5.48864
O         -6.50360      -10.64694       -5.79135
C         -4.81996       -9.40496       -4.59534
C         -2.39356       -8.17130       -2.77641
C         -2.20417       -9.48841       -2.62022
N         -1.56920      -10.13729       -1.57771
C         -1.38087      -11.48629       -1.42751
S         -1.27512      -12.55939       -2.79084
C         -1.03456      -13.89621       -1.80369
N         -0.81574      -15.17544       -2.38724
O          0.24224      -15.74082       -2.08487
O         -1.71372      -15.63211       -3.10702
C         -1.04089      -13.60871       -0.46716
C         -1.22189      -12.20406       -0.23720
C         -1.28324      -11.60972        1.07296
C         -1.14191      -12.26444        2.23916
C         -1.23526      -11.67493        3.55185
C         -0.95393      -10.42216        3.95221
O         -0.46952       -9.46974        3.07920
C         -0.74534       -8.11969        3.43662
C         -0.01190       -7.76953        4.71167
S         -0.79093       -8.62809        6.09535
C         -1.19151      -10.15324        5.37668
C         -1.72320      -11.20479        6.04004
S         -1.82646      -12.66310        4.92921
N         -0.28948      -13.19234        5.37407
C          0.25943      -14.42250        4.81621
C         -2.16295      -11.43010        7.40524
C         -2.38781      -10.52956        8.37506
C         -2.84832      -10.91104        9.69680
C         -3.46064      -10.11863       10.59293
C         -3.89194      -10.40715       11.98346
C         -4.18665      -11.62103       12.51643
C         -4.68976      -11.77848       13.83637
N         -5.09967      -11.91414       14.91843
C         -4.07893      -12.84167       11.78601
N         -3.98476      -13.83634       11.19855
C         -4.11369       -9.07605       12.64001
C         -4.05918       -8.08632       11.65785
C         -3.74262       -8.66278       10.34859
O         -3.73654       -8.03798        9.30869
C         -4.23674       -6.72792       11.89855
C         -4.47873       -6.32354       13.22766
C         -4.51536       -7.30428       14.23049
C         -4.32554       -8.68578       13.95844
S         -4.81235       -6.59249       15.77842
C         -4.89620       -5.03966       15.12187
C         -4.69661       -5.01037       13.76815
Br        -5.22820       -3.50737       16.14700
H        -10.75676        0.20739       -1.50177
H        -10.12573       -1.33532       -0.69655
H         -9.67741        0.96595       -3.77825
H         -7.93384        0.21820       -5.44073
H         -6.34839       -0.82768       -6.65924
H         -4.64810       -2.37493       -7.68574
H         -3.47785       -4.63580       -7.26545
H         -5.31543       -7.72315       -7.55735
H         -6.23240       -6.38664       -6.83367
H         -4.11059      -10.18243       -4.89935
H         -5.14682       -9.58412       -3.56593
H         -1.97750       -7.48685       -2.04089
H         -2.58184      -10.18063       -3.36233
H         -1.29374       -9.51999       -0.81718
H         -0.92271      -14.36694        0.29643
H         -1.48017      -10.54199        1.11442
H         -0.97234      -13.33572        2.24937
H         -1.82788       -7.94208        3.48686
H         -0.36216       -7.49880        2.61930
H         -0.05077       -6.69309        4.89858
H          1.03696       -8.07949        4.65403
H         -0.10087      -13.20162        6.37808
H          0.40340      -14.34619        3.73550
H         -0.37861      -15.28408        5.03399
H          1.24558      -14.61063        5.25356
H         -2.39571      -12.47370        7.62593
H         -2.22782       -9.47226        8.19878
H         -2.61175      -11.94216        9.94052
H         -4.17750       -6.00859       11.08572
H         -4.34349       -9.38065       14.79000
H         -4.70661       -4.10386       13.17446
