127

C         14.47153       -6.53283       -0.22262
C         13.55077       -6.09470       -1.08365
C         13.71076       -4.99037       -1.99021
C         12.60394       -4.71867       -2.69662
C         11.47476       -5.58274       -2.38127
S         11.97274       -6.81401       -1.21462
C         10.21334       -5.44563       -2.83650
C          9.74005       -4.42260       -3.75294
C          8.40298       -4.38816       -3.88352
C          7.72087       -5.37897       -3.08228
S          8.86104       -6.45804       -2.32117
C          6.38537       -5.41713       -2.91843
C          5.66398       -6.34311       -2.03969
C          5.14708       -7.54357       -2.54338
C          4.46387       -8.38476       -1.67156
C          4.31566       -8.05583       -0.30563
C          4.81229       -6.86358        0.19189
C          5.48482       -6.00562       -0.68275
C          3.61161       -9.12275        0.37062
C          3.27319      -10.12293       -0.56409
C          3.76664       -9.72052       -1.96278
C          4.73757      -10.77386       -2.56247
C          6.02427      -11.02263       -1.77912
C          2.57259       -9.52821       -2.94213
C          1.56643       -8.43903       -2.57004
C          2.59616      -11.27178       -0.16559
C          2.25211      -11.42818        1.18865
C          2.61919      -10.43025        2.11447
C          3.29092       -9.27233        1.70854
C          1.58331      -12.66971        1.61450
C          0.70166      -12.76281        2.62638
C          0.03670      -14.01605        3.03073
C         -0.35376      -14.18859        4.37028
C         -0.99842      -15.36787        4.74052
C         -1.28100      -16.36905        3.78865
C         -0.91357      -16.20568        2.46551
C         -0.26287      -15.02542        2.09193
C         -1.94880      -17.47472        4.43610
C         -2.07684      -17.19827        5.81201
C         -1.49239      -15.81303        6.13556
C         -2.58657      -14.80488        6.59611
C         -3.37677      -15.15243        7.85411
C         -0.31832      -15.90300        7.14599
C          0.89713      -16.70313        6.67009
C         -2.65365      -18.13112        6.66792
C         -3.15874      -19.32402        6.13159
C         -3.04534      -19.58319        4.75580
C         -2.42542      -18.66331        3.90281
C         -3.85578      -20.26808        7.01063
C         -5.17905      -20.17085        7.19573
C         -5.92328      -20.98755        8.13904
C         -7.23428      -20.87556        8.40764
C         -7.92103      -21.57612        9.47093
C         -9.12249      -21.05295        9.76230
C         -9.46581      -19.90513        8.93917
S         -8.32566      -19.78090        7.60115
C        -10.39933      -18.96981        9.19525
C        -11.24145      -18.88140       10.37374
C        -11.79617      -17.67063       10.54370
C        -11.46160      -16.73388        9.49299
S        -10.63001      -17.54032        8.19157
C        -11.69048      -15.41241        9.53573
C        -11.32773      -14.45818        8.47393
C        -11.04028      -13.17237        8.80360
O        -12.02901      -12.37322        9.40141
C        -13.29348      -12.54007        8.92820
C        -14.35104      -11.81026        9.41418
S        -15.81678      -12.23692        8.63040
C        -15.02834      -13.39321        7.63438
C        -13.68435      -13.45408        7.90352
S        -12.53455      -14.55478        7.12407
C        -10.08212      -12.41484        8.00022
C        -10.03857      -11.08122        7.87507
H         15.44608       -6.06514       -0.14240
H         14.26930       -7.37122        0.43756
H         14.63402       -4.43389       -2.07286
H         12.55082       -3.90948       -3.41014
H         10.39576       -3.73105       -4.26294
H          7.87706       -3.67300       -4.49832
H          5.75555       -4.68170       -3.40665
H          5.27912       -7.81290       -3.58618
H          4.68708       -6.59280        1.23448
H          5.88097       -5.06832       -0.29758
H          5.02402      -10.46891       -3.57784
H          4.21567      -11.73406       -2.66989
H          6.63621      -10.11861       -1.70869
H          6.62546      -11.78209       -2.29066
H          5.82057      -11.38654       -0.76819
H          2.02498      -10.47476       -3.04097
H          2.95694       -9.29081       -3.94315
H          1.12346       -8.61080       -1.58512
H          0.75188       -8.42239       -3.30180
H          2.02662       -7.44614       -2.57700
H          2.33931      -12.03432       -0.89537
H          2.40114      -10.55566        3.17228
H          3.56773       -8.52093        2.44059
H          1.85589      -13.54907        1.03628
H          0.42994      -11.88570        3.20802
H         -0.14506      -13.42367        5.11319
H         -1.12023      -16.96967        1.72468
H          0.00135      -14.90009        1.04477
H         -3.31416      -14.65131        5.78723
H         -2.11897      -13.82560        6.76597
H         -4.01436      -16.02737        7.70395
H         -4.04887      -14.32451        8.10632
H         -2.72617      -15.32717        8.71476
H         -0.66756      -16.35106        8.08410
H          0.02961      -14.89214        7.39668
H          0.62720      -17.72033        6.37173
H          1.63375      -16.77870        7.47665
H          1.39377      -16.21608        5.82505
H         -2.73487      -17.93527        7.73235
H         -3.44694      -20.50520        4.34007
H         -2.33480      -18.87978        2.84371
H         -3.24085      -20.99556        7.52865
H         -5.72638      -19.39647        6.65473
H         -5.33187      -21.68851        8.72289
H         -7.47536      -22.40114       10.00925
H         -9.75479      -21.41830       10.55929
H        -11.35923      -19.69038       11.08025
H        -12.41168      -17.40022       11.39067
H        -12.13602      -14.98189       10.43001
H        -14.33746      -11.05404       10.18526
H        -15.59399      -13.97301        6.91790
H         -9.35011      -13.00812        7.45184
H        -10.75010      -10.42759        8.36909
H         -9.29373      -10.61131        7.24028
