131

C         15.09830       -7.38178       -0.32177
C         14.18631       -6.91821       -1.17657
C         14.36520       -5.79252       -2.05383
C         13.27513       -5.50004       -2.77645
C         12.14964       -6.38276       -2.53539
S         12.60352       -7.62118       -1.35212
C         10.91824       -6.26478       -3.07173
C         10.44541       -5.21187       -3.95044
C          9.10795       -5.17107       -4.08731
C          8.43144       -6.18581       -3.30652
S          9.59497       -7.36122       -2.73219
C          7.11381       -6.16930       -3.03309
C          6.37824       -7.05970       -2.11106
C          5.03655       -7.39504       -2.36880
C          4.38032       -8.23478       -1.47461
C          5.05911       -8.76498       -0.35144
C          6.35153       -8.40627       -0.05694
C          6.98118       -7.51657       -0.91691
C          4.19734       -9.68498        0.34587
C          2.94950       -9.71670       -0.29783
C          2.93229       -8.73686       -1.47481
C          2.52425       -9.46269       -2.78310
C          3.42287      -10.62650       -3.20583
C          1.92469       -7.59499       -1.15088
C          2.21539       -6.77588        0.11345
C          1.94387      -10.56380        0.11840
C          2.19935      -11.40579        1.20357
C          3.44925      -11.37030        1.85002
C          4.45045      -10.49368        1.43313
C          1.18953      -12.40015        1.53879
C          1.02512      -12.96597        2.73687
C          0.10677      -14.09818        2.93703
C         -0.56122      -14.34609        4.14405
O         -0.31405      -13.52316        5.22363
C         -0.57047      -14.11067        6.50805
C          0.22504      -13.39836        7.58969
C         -1.46398      -15.41713        4.19215
C         -1.66019      -16.27866        3.09569
O         -2.56140      -17.27794        3.36468
C         -3.36026      -17.73781        2.28058
C         -4.34056      -18.76494        2.80975
C         -0.91856      -16.08819        1.92221
C         -0.03865      -15.01105        1.87198
C         -0.98494      -16.90094        0.70365
C         -0.22652      -17.99441        0.49804
C         -0.48147      -18.89187       -0.62069
C          0.07904      -20.09047       -0.84427
C         -0.40060      -21.00909       -1.85558
C          0.05991      -22.26124       -1.70242
C          0.92219      -22.42242       -0.54006
S          1.33826      -20.83447        0.10951
C          1.21820      -23.59444        0.05628
C          0.79493      -24.91432       -0.38319
C          0.83199      -25.84257        0.58691
C          1.26529      -25.30571        1.86340
S          1.99665      -23.73250        1.63852
C          1.00237      -25.89026        3.04082
C          1.19746      -25.28007        4.36837
C          2.32173      -25.50902        5.16038
O          3.26929      -26.38802        4.70728
C          4.11443      -26.94614        5.71825
C          4.73764      -28.20164        5.15913
C          2.44592      -24.83919        6.38431
C          1.46584      -23.96589        6.86787
O          1.59527      -23.32155        8.08351
C          2.94250      -23.18832        8.56160
C          2.97371      -22.48464        9.90381
C          0.31234      -23.75310        6.09286
C          0.18740      -24.43963        4.86459
C         -0.74934      -22.82141        6.52022
C         -1.50358      -22.11646        5.66529
H         16.07668       -6.92495       -0.22799
H         14.88853       -8.23287        0.32284
H         15.29348       -5.24138       -2.11209
H         13.24201       -4.67824       -3.47977
H         11.10539       -4.49821       -4.42132
H          8.58030       -4.42540       -4.66536
H          6.49547       -5.39417       -3.48073
H          4.52347       -7.01732       -3.24662
H          6.87402       -8.79315        0.80994
H          7.98017       -7.19627       -0.63356
H          2.48201       -8.74457       -3.61156
H          1.50557       -9.85818       -2.67366
H          4.42440      -10.28174       -3.47800
H          2.99482      -11.12517       -4.08203
H          3.51912      -11.38162       -2.41974
H          0.92136       -8.02721       -1.03651
H          1.86375       -6.89779       -1.99610
H          2.45675       -7.40119        0.97797
H          1.33573       -6.18308        0.38578
H          3.04458       -6.08036       -0.04919
H          0.99231      -10.58721       -0.40309
H          3.66793      -12.05503        2.66870
H          5.41165      -10.48681        1.93872
H          0.58721      -12.72146        0.67573
H          1.58018      -12.63636        3.60938
H         -0.26408      -15.16329        6.52139
H         -1.63938      -14.03392        6.74058
H          1.28783      -13.35876        7.33131
H          0.11684      -13.92328        8.54444
H         -0.11982      -12.36846        7.72262
H         -2.04700      -15.61186        5.08588
H         -2.75258      -18.26138        1.54652
H         -3.89738      -16.90378        1.81151
H         -3.83909      -19.46297        3.48802
H         -4.77927      -19.32823        1.98108
H         -5.14417      -18.28050        3.37037
H          0.56274      -14.88648        0.96936
H         -1.74054      -16.58457       -0.01028
H          0.52583      -18.27778        1.22742
H         -1.29573      -18.58577       -1.27344
H         -1.13705      -20.73185       -2.59624
H         -0.27448      -23.08649       -2.31485
H          0.43143      -25.11944       -1.38096
H          0.49728      -26.86118        0.46221
H          0.48178      -26.84379        3.06998
H          3.54016      -27.21848        6.61430
H          4.90211      -26.23031        5.98626
H          3.95573      -28.93510        4.93870
H          5.44125      -28.63590        5.87398
H          5.25700      -27.98469        4.22156
H          3.34146      -25.00631        6.96202
H          3.53267      -22.61644        7.83521
H          3.39928      -24.16924        8.72949
H          3.98798      -22.52449       10.31949
H          2.28873      -22.96250       10.60997
H          2.68063      -21.43795        9.80324
H         -0.71248      -24.31198        4.26536
H         -0.87776      -22.68326        7.59134
H         -1.38333      -22.18412        4.58754
H         -2.25283      -21.41848        6.02388
