77

C         -5.14175       -8.75666        3.97436
C         -4.00329       -8.28043        4.48367
C         -3.84058       -7.74288        5.80687
C         -2.59371       -7.31728        6.05962
C         -1.67608       -7.48865        4.94668
S         -2.51730       -8.24322        3.58349
C         -0.37780       -7.12713        4.92205
C          0.37369       -6.49744        5.99058
C          1.64928       -6.22139        5.67567
C          2.01865       -6.61094        4.32870
S          0.65679       -7.36147        3.52911
C          3.24044       -6.41038        3.80343
C          3.62701       -6.79745        2.48608
O          2.79122       -7.40478        1.58968
C          3.43088       -7.67620        0.41742
C          4.72961       -7.22353        0.55171
C          4.85211       -6.65859        1.84853
C          2.79360       -8.32796       -0.66962
C          1.46628       -8.22507       -0.83317
C          0.75058       -8.90659       -1.86839
C         -0.57467       -9.30888       -1.91442
C         -0.91384      -10.02538       -3.12672
C         -2.17884      -10.56618       -3.38905
C         -3.09295      -10.32984       -2.34010
C         -2.76682       -9.61484       -1.14674
C         -1.49105       -9.07382       -0.87754
C          0.14109      -10.11175       -4.00741
S          1.52250       -9.32064       -3.36095
C          0.25327      -10.66014       -5.31154
C          0.70162      -11.91031       -5.49353
C          0.92383      -12.39928       -6.80882
O          0.74170      -11.64415       -7.94245
C          1.03209      -12.38419       -9.05674
C          1.43707      -13.63893       -8.62233
C          1.37110      -13.64586       -7.21100
C          0.91629      -11.85097      -10.36770
C          0.66286      -12.64906      -11.41303
C          0.53345      -12.17602      -12.77608
C          0.25309      -12.93984      -13.84267
C          0.11555      -12.42932      -15.18543
C         -0.28552      -13.35144      -16.07036
C         -0.51136      -14.66699      -15.49310
S         -0.02314      -14.66544      -13.80247
C         -1.06191      -15.72611      -16.11719
C         -1.54475      -15.74798      -17.48656
C         -2.16702      -16.88515      -17.82822
C         -2.20881      -17.85003      -16.76132
S         -1.37174      -17.28581      -15.34495
C         -2.82055      -19.03615      -16.81715
H         -6.05970       -8.76847        4.54947
H         -5.18632       -9.14637        2.96153
H         -4.65183       -7.68944        6.51836
H         -2.30109       -6.88472        7.00463
H         -0.05302       -6.26768        6.95585
H          2.34637       -5.75300        6.35641
H          4.00083       -5.92478        4.40667
H          5.49676       -7.28166       -0.20984
H          5.73611       -6.20427        2.27220
H          3.42205       -8.92070       -1.32810
H          0.88498       -7.62524       -0.13440
H         -2.45064      -11.11099       -4.28370
H         -4.10806      -10.71458       -2.44321
H         -3.54807       -9.48284       -0.39707
H         -1.27920       -8.54356        0.04260
H          0.02876      -10.00667       -6.15069
H          0.93856      -12.55533       -4.65170
H          1.75596      -14.45231       -9.25868
H          1.62859      -14.46703       -6.55621
H          1.01196      -10.77508      -10.47961
H          0.52417      -13.71538      -11.24701
H          0.66757      -11.10525      -12.92148
H          0.30712      -11.39556      -15.43708
H         -0.44778      -13.12663      -17.11430
H         -1.43805      -14.91500      -18.16545
H         -2.60806      -17.06484      -18.79753
H         -3.34958      -19.36034      -17.70590
H         -2.81819      -19.71233      -15.96742
