106

C         -2.63184      -23.75610       -0.94686
C         -1.44245      -23.24196       -0.62664
C         -0.22648      -23.99040       -0.45403
C          0.82142      -23.22990       -0.10689
C          0.50198      -21.81875        0.05063
S         -1.19804      -21.54250       -0.35348
C          1.34396      -20.84970        0.46021
C          2.75336      -20.99883        0.76547
C          3.36090      -19.85664        1.11927
C          2.48566      -18.69923        1.12808
S          0.85485      -19.18279        0.73663
C          2.91527      -17.44957        1.39621
C          2.20658      -16.18826        1.40445
C          1.14396      -15.96723        0.54426
S          0.46914      -14.41986        0.67594
C          1.65567      -13.96363        1.79130
C          2.54494      -14.96837        2.16505
C          3.54336      -14.58682        3.14542
C          4.50674      -15.60143        3.73501
C          3.94520      -16.25450        4.99118
C          3.59797      -13.20397        3.58086
C          2.63013      -12.35402        3.05789
N          1.66275      -12.69857        2.21002
S          2.73205      -10.74308        3.56881
C          4.08687      -11.08794        4.52656
C          4.46093      -12.41945        4.46915
C          5.57216      -12.88513        5.25328
C          6.64469      -12.15511        5.59202
C          7.69271      -12.66927        6.44224
C          8.11434      -12.09942        7.58218
C          9.15302      -12.66733        8.41036
C          9.36578      -11.98019        9.53689
C          8.51449      -10.79888        9.69647
S          7.46036      -10.63838        8.29572
C          8.54066       -9.96285       10.75207
C          9.42651      -10.10403       11.89017
C          9.34322       -9.09706       12.76871
C          8.36352       -8.08145       12.43345
S          7.52103       -8.52248       10.97016
C          8.16842       -7.03874       13.26100
C          7.15273       -6.02048       13.37973
C          6.84183       -5.61014       14.66934
S          5.42714       -4.66934       14.75061
C          5.21808       -4.79019       13.07403
C          6.30083       -5.36295       12.41219
C          6.30315       -5.16978       10.99945
C          7.61308       -4.87410       10.28376
C          7.80051       -3.35197       10.17258
C          5.04147       -4.96238       10.35654
C          4.01843       -4.49879       11.17762
N          4.11099       -4.30558       12.49933
S          2.58509       -4.11985       10.35583
C          3.23525       -4.67361        8.88358
C          4.53623       -5.13157        9.01024
C          5.22328       -5.75572        7.91221
C          4.61395       -6.43597        6.92857
C          5.29624       -6.95991        5.76269
C          4.71421       -7.11435        4.56288
C          5.39628       -7.54141        3.36703
C          4.64205       -7.44950        2.26033
C          3.28926       -6.97111        2.50017
S          3.04829       -6.70968        4.22071
C          2.33084       -6.76617        1.57669
C          2.47393       -6.92395        0.14061
C          1.32771       -6.77980       -0.53947
C          0.19802       -6.50227        0.30656
S          0.67344       -6.28633        1.96520
C         -1.07496       -6.43230       -0.09126
H         -2.77059      -24.82059       -1.09719
H         -3.50658      -23.12273       -1.06192
H         -0.18039      -25.06229       -0.58467
H          1.80546      -23.63780        0.07217
H          3.27536      -21.94316        0.69962
H          4.41150      -19.79406        1.36983
H          3.97888      -17.37142        1.58422
H          0.70683      -16.63169       -0.18531
H          5.47054      -15.13271        3.94409
H          4.76924      -16.37092        3.01545
H          3.69671      -15.51346        5.75836
H          4.67872      -16.94658        5.41803
H          3.03489      -16.82206        4.77129
H          4.53034      -10.28912        5.10528
H          5.50648      -13.89440        5.64842
H          6.76055      -11.12255        5.26787
H          8.14593      -13.60431        6.10914
H          9.69014      -13.56146        8.14216
H         10.10764      -12.28567       10.25933
H         10.09034      -10.94323       12.03436
H          9.91565       -9.08175       13.68826
H          8.84033       -7.04215       14.12267
H          7.33237       -5.88166       15.59443
H          7.64936       -5.31498        9.28976
H          8.46047       -5.28557       10.83864
H          7.03363       -2.89248        9.53662
H          8.77627       -3.10961        9.73943
H          7.74070       -2.86503       11.15397
H          2.61299       -4.65489        7.99859
H          6.29939       -5.65408        7.86036
H          3.53440       -6.57197        6.96018
H          6.35517       -7.18330        5.87825
H          6.42027       -7.88627        3.36858
H          5.00309       -7.72307        1.27969
H          3.41761       -7.13766       -0.33903
H          1.24307       -6.87191       -1.61278
H         -1.35600       -6.59141       -1.12604
H         -1.87639       -6.23885        0.61588
