129

C          6.24965       -6.00407       16.79000
C          7.14416       -6.24109       15.82843
C          8.50155       -5.76737       15.81015
C          9.16453       -6.09889       14.69286
C          8.36697       -6.85005       13.73346
S          6.76632       -7.17287       14.41013
C          8.74411       -7.21491       12.49209
C         10.02871       -6.94622       11.87047
C         10.09149       -7.29312       10.57728
C          8.86608       -7.86863       10.07345
S          7.68972       -8.04941       11.34772
C          8.66865       -8.19446        8.78791
C          7.43303       -8.75313        8.23058
C          7.25707      -10.14095        8.17898
C          6.08749      -10.63562        7.61826
C          5.09304       -9.76567        7.11872
C          5.25760       -8.39341        7.17897
C          6.43564       -7.88828        7.73873
C          3.99989      -10.54917        6.59080
C          4.28861      -11.92081        6.75487
C          5.65649      -12.09340        7.42445
C          5.55140      -12.84587        8.77902
C          4.64368      -12.20817        9.82975
C          6.63713      -12.85977        6.49270
C          6.90311      -12.21606        5.13158
C          3.40622      -12.89757        6.31314
C          2.22315      -12.49519        5.67837
C          1.93202      -11.12123        5.54499
C          2.82165      -10.14260        5.99285
C          1.28491      -13.52414        5.21372
C          0.51311      -13.38109        4.12459
C         -0.40823      -14.38506        3.70913
C         -1.09239      -15.35864        4.40958
C         -1.94442      -16.16924        3.57214
N         -2.73820      -17.16583        4.06105
C         -2.61498      -17.30642        5.41428
C         -3.49268      -18.32942        6.02876
O         -4.38974      -18.89256        5.41400
C         -3.26847      -18.66648        7.44747
C         -2.38460      -18.00411        8.19412
C         -1.59442      -16.88272        7.65068
O         -0.82570      -16.28174        8.39058
C         -1.75069      -16.55799        6.21300
N         -0.96913      -15.53780        5.75648
C         -1.81495      -15.87369        2.22724
S         -0.84016      -14.46342        2.04090
C         -2.34474      -16.57776        1.03828
C         -1.63522      -16.58982       -0.18042
C         -2.08211      -17.39263       -1.22455
C         -3.23423      -18.19122       -1.07977
C         -3.97048      -18.15987        0.08837
C         -3.52640      -17.34673        1.13594
C         -3.40754      -18.99579       -2.26522
C         -2.37816      -18.69447       -3.17629
C         -1.45171      -17.61083       -2.61445
C          0.02428      -18.08430       -2.52487
C          0.28080      -19.32330       -1.66871
C         -1.56534      -16.28114       -3.41784
C         -1.16934      -16.33748       -4.89204
C         -2.26822      -19.38643       -4.37203
C         -3.19330      -20.39696       -4.67138
C         -4.23500      -20.67096       -3.76490
C         -4.34162      -19.97750       -2.55303
C         -3.11141      -21.15138       -5.93171
C         -1.94225      -21.42007       -6.53333
C         -1.81979      -22.12687       -7.79003
C         -0.67065      -22.38577       -8.43416
C         -0.59816      -23.08614       -9.69219
C          0.64867      -23.22853      -10.15859
C          1.67554      -22.65079       -9.30506
S          0.92538      -21.92299       -7.88675
C          3.00046      -22.65821       -9.53734
C          3.65745      -23.24569      -10.69710
C          4.99090      -23.12213      -10.69217
C          5.49369      -22.43148       -9.53377
S          4.20997      -21.94684       -8.46376
C          6.78087      -22.18002       -9.28425
H          6.49314       -5.40920       17.66261
H          5.23818       -6.39425       16.72329
H          8.92840       -5.19182       16.61975
H         10.19019       -5.80980       14.51460
H         10.85815       -6.49276       12.39360
H         10.96391       -7.14848        9.95496
H          9.45203       -8.03321        8.05252
H          8.01380      -10.81457        8.56784
H          4.49741       -7.71827        6.80242
H          6.57064       -6.81055        7.79474
H          6.55272      -12.94149        9.21976
H          5.19573      -13.86991        8.60426
H          4.96783      -11.19564       10.08752
H          4.66955      -12.80236       10.74952
H          3.60374      -12.16638        9.49339
H          6.25509      -13.87401        6.31549
H          7.60384      -12.98114        6.99859
H          5.98397      -12.09221        4.55156
H          7.57773      -12.85052        4.54749
H          7.38276      -11.23816        5.23491
H          3.63971      -13.95008        6.44650
H          0.99656      -10.79764        5.09483
H          2.58230       -9.09237        5.86946
H          1.26533      -14.43270        5.81125
H          0.59256      -12.48582        3.51257
H         -3.86580      -19.47791        7.84881
H         -2.21296      -18.25116        9.23634
H         -0.71717      -16.02501       -0.31036
H         -4.85620      -18.77262        0.21768
H         -4.10966      -17.35436        2.05485
H          0.64744      -17.27014       -2.13253
H          0.40673      -18.30526       -3.52848
H          0.04024      -19.14601       -0.61677
H          1.34162      -19.59189       -1.72123
H         -0.29311      -20.18608       -2.01857
H         -0.93567      -15.52138       -2.93538
H         -2.59260      -15.89455       -3.36688
H         -0.20881      -16.83409       -5.05002
H         -1.08385      -15.32281       -5.29461
H         -1.93107      -16.84910       -5.48794
H         -1.46287      -19.14534       -5.05789
H         -4.95995      -21.45144       -3.98516
H         -5.12886      -20.22713       -1.84949
H         -4.05395      -21.48685       -6.35469
H         -1.01500      -21.09556       -6.06690
H         -2.75514      -22.45945       -8.23589
H         -1.47557      -23.45739      -10.20500
H          0.86691      -23.73000      -11.08944
H          3.12135      -23.73768      -11.49504
H          5.63589      -23.49830      -11.47398
H          7.56308      -22.49253       -9.96712
H          7.08921      -21.65340       -8.38628
