111

C          4.71650        2.32310        4.64280
C          5.65602        1.67048        5.33027
C          5.89800        1.78034        6.73997
C          6.63393        0.75392        7.22371
C          7.01079       -0.21585        6.18500
S          6.68414        0.47875        4.59631
C          7.37770       -1.51082        6.34018
C          7.42979       -2.23396        7.59724
C          7.47245       -3.56330        7.44308
C          7.52985       -4.03844        6.05181
S          7.65148       -2.65522        4.99677
C          7.45826       -5.34602        5.69408
C          7.28451       -5.98847        4.38781
S          5.61063       -5.97590        3.81111
C          5.76910       -7.40543        2.87225
C          7.06604       -7.81975        2.88753
C          8.00739       -6.92704        3.59354
C          9.40513       -7.27046        3.47407
C         10.56647       -6.38628        3.14568
O         11.49277       -6.84353        2.47295
C         10.66109       -4.97239        3.56484
C          9.65030       -8.57845        2.91265
C          8.71265       -9.38652        2.26910
C          7.39265       -8.97462        2.16002
C          4.66383       -7.93578        2.15931
C          4.32733       -9.25284        2.13141
N          3.16777       -9.82123        1.54316
C          1.91647       -9.14924        1.85625
C          1.82896       -7.63648        2.02729
C          3.08590      -11.17772        1.18735
C          4.24586      -11.86660        0.78047
S          3.99144      -13.45534        0.25665
C          2.31259      -13.31293        0.49366
C          1.88060      -12.10595        1.04625
N          0.49668      -11.90124        1.30012
C          0.09361      -11.44505        2.67664
C         -0.72716      -10.14295        2.64915
C         -0.45532      -12.80857        0.76014
C         -1.46982      -12.63008       -0.10104
N         -2.29844      -13.65030       -0.60102
C         -3.42516      -14.18093        0.00866
S         -4.12818      -13.31372        1.38398
C         -5.51228      -14.25634        1.35605
N         -6.56315      -14.05027        2.28874
O         -6.87192      -15.00462        3.01675
O         -7.13102      -12.94350        2.27243
C         -5.47114      -15.22118        0.39288
C         -4.19587      -15.34845       -0.23995
C         -4.00640      -16.55644       -1.08228
C         -4.33350      -17.84206       -0.68822
N         -4.43379      -19.16207       -1.30713
C         -4.15122      -19.28204       -2.79073
C         -2.88236      -18.58965       -3.28425
C         -4.89767      -20.42059       -0.67632
C         -4.38526      -21.64818       -1.11714
S         -5.00694      -23.06902       -0.42259
C         -5.90443      -22.15218        0.68772
C         -5.93181      -20.79628        0.41647
N         -6.87944      -19.99186        1.10165
C         -7.80415      -20.67662        2.10301
C         -9.16693      -20.02910        2.36252
C         -7.10846      -18.69960        0.70947
C         -7.72777      -17.68113        1.30869
H          4.03696        3.02096        5.11315
H          4.56683        2.12270        3.58464
H          5.49743        2.57865        7.34846
H          6.91190        0.67182        8.25197
H          7.36792       -1.74214        8.56570
H          7.42801       -4.24323        8.29331
H          7.25191       -6.02964        6.51795
H         11.16448       -4.94320        4.53307
H          9.69239       -4.47623        3.57327
H         11.29019       -4.45930        2.82721
H         10.68268       -8.92055        2.79296
H          9.01603      -10.27920        1.74004
H          6.72365       -9.54914        1.54035
H          4.13178       -7.21738        1.56517
H          4.89914       -9.99202        2.66060
H          1.69827       -9.53272        2.85169
H          1.18058       -9.41095        1.09478
H          2.36993       -7.30008        2.91884
H          0.79190       -7.33455        2.20140
H          2.17243       -7.09686        1.14121
H          5.25248      -11.47029        0.74741
H          1.71150      -14.16798        0.21910
H          0.94390      -11.40147        3.36888
H         -0.57336      -12.20097        3.11586
H         -0.15770       -9.26475        2.94971
H         -1.52220      -10.15744        3.39510
H         -1.14270       -9.92935        1.66084
H         -0.31114      -13.81699        1.14817
H         -1.64165      -11.63739       -0.52745
H         -2.34507      -13.59705       -1.61920
H         -6.28350      -15.87868        0.16864
H         -3.71273      -16.32302       -2.09895
H         -4.59097      -17.96824        0.36042
H         -5.01797      -18.91073       -3.35142
H         -4.04518      -20.32283       -3.10886
H         -3.06689      -17.53893       -3.51378
H         -2.55146      -19.02337       -4.23635
H         -2.05834      -18.66437       -2.57037
H         -3.63747      -21.84383       -1.87522
H         -6.44122      -22.73089        1.44743
H         -7.27936      -20.81380        3.05608
H         -8.09157      -21.66813        1.73889
H         -9.09919      -19.24823        3.12600
H         -9.87533      -20.76142        2.76528
H         -9.61142      -19.62482        1.44853
H         -6.71992      -18.51559       -0.28281
H         -8.11433      -17.70483        2.31294
H         -7.85986      -16.74875        0.78879
