95

C         -3.79701       -1.39753       -3.97040
C         -3.20845       -0.98104       -2.84305
C         -2.85388        0.37058       -2.50950
C         -2.12211        0.47062       -1.38110
C         -1.81541       -0.81547       -0.78154
S         -2.73485       -2.09289       -1.60466
C         -0.89404       -1.08038        0.16703
C         -0.02400       -0.15897        0.87667
C          0.98240       -0.76505        1.53466
C          0.97210       -2.21481        1.42945
S         -0.49304       -2.71970        0.61934
C          1.94191       -3.05991        1.85362
C          1.87059       -4.49803        1.72089
S          0.44839       -5.31840        2.34005
C          0.64991       -6.65107        1.27921
C          1.96349       -6.68957        0.85905
C          2.73527       -5.50387        1.27837
C          4.13349       -5.43292        1.05659
C          5.04920       -4.39772        1.55703
O          4.90501       -3.68120        2.52900
O          6.17599       -4.35275        0.81908
C          4.67395       -6.60177        0.43797
C          3.90339       -7.70415       -0.02140
C          2.51760       -7.77504        0.15147
O          1.80103       -8.83898       -0.31496
C         -0.44951       -7.52632        1.07654
C         -0.63632       -8.58439        1.87550
N         -1.61399       -9.55903        1.83050
C         -1.92545      -10.38998        0.78381
S         -1.52270      -10.03067       -0.86133
C         -2.18561      -11.47024       -1.41426
N         -2.05191      -11.80581       -2.79262
O         -1.49856      -12.88521       -3.03957
O         -2.51396      -11.01276       -3.62172
C         -2.74848      -12.23749       -0.42803
C         -2.56762      -11.63249        0.86058
C         -2.95710      -12.23257        2.11125
C         -3.82300      -13.24587        2.29120
C         -4.15036      -13.72004        3.60410
S         -4.31125      -15.44160        3.76843
C         -4.32527      -15.40758        5.48402
C         -4.24129      -14.09855        5.92567
C         -4.35885      -13.10843        4.83957
C         -4.51527      -11.71964        5.11873
C         -4.84080      -10.60154        4.21648
O         -4.73939       -9.42148        4.51210
O         -5.32071      -10.95958        3.02130
C         -4.40468      -11.41160        6.50393
C         -4.19979      -12.37064        7.53596
C         -4.14077      -13.74744        7.28668
O         -3.95349      -14.64570        8.29884
C         -4.43294      -16.64200        6.19307
C         -5.64242      -17.13312        6.49854
C         -5.86674      -18.36847        7.22374
C         -6.96166      -19.14159        7.11149
C         -7.20249      -20.35675        7.85498
C         -8.27687      -21.03635        7.44432
C         -8.97186      -20.42613        6.31955
S         -8.25750      -18.85421        5.97029
C         -9.97889      -20.96195        5.60930
C        -10.58748      -22.26512        5.83293
C        -11.52862      -22.59035        4.93706
C        -11.73750      -21.57426        3.93669
S        -10.73026      -20.18473        4.20981
C        -12.58603      -21.66202        2.91051
H         -4.06838       -0.70773       -4.76159
H         -4.00524       -2.45277       -4.14044
H         -3.13590        1.21230       -3.11714
H         -1.75269        1.40799       -0.99872
H         -0.16990        0.91251        0.85982
H          1.73334       -0.22874        2.10084
H          2.84475       -2.63477        2.28234
H          6.73816       -3.68305        1.25938
H          5.75633       -6.67867        0.31471
H          4.43027       -8.53152       -0.49495
H          2.37045       -9.38645       -0.87880
H         -1.13480       -7.30399        0.26605
H          0.03511       -8.74305        2.71918
H         -1.85748       -9.86657        2.76807
H         -3.21713      -13.19566       -0.61748
H         -2.51626      -11.79710        3.00410
H         -4.26394      -13.76225        1.44365
H         -5.39472      -10.12277        2.51097
H         -4.49012      -10.36644        6.81001
H         -4.11307      -12.00023        8.55620
H         -3.86755      -14.16317        9.13695
H         -3.51567      -17.16061        6.46131
H         -6.53105      -16.57772        6.19707
H         -5.07390      -18.67050        7.90474
H         -6.56270      -20.67676        8.66882
H         -8.59186      -21.97042        7.89409
H        -10.30399      -22.91857        6.64481
H        -12.07923      -23.51956        4.94442
H        -13.20072      -22.54238        2.75585
H        -12.68546      -20.85597        2.18956
