87

C          4.98786        2.26115        2.64278
C          5.81814        1.21768        2.58552
C          7.19464        1.22983        2.99896
C          7.80645        0.04830        2.83969
C          6.95190       -0.99541        2.28808
S          5.33641       -0.34504        1.98753
C          7.31715       -2.27000        2.04138
C          8.63504       -2.83340        2.27551
C          8.74364       -4.12784        1.94915
C          7.52672       -4.69721        1.41790
S          6.24493       -3.51217        1.38222
C          7.43115       -5.96847        0.99976
C          6.24237       -6.61006        0.40731
C          5.34159       -7.22762        1.26765
C          4.22329       -7.86096        0.74536
C          3.95611       -7.88192       -0.64112
C          4.89128       -7.29287       -1.52029
N          4.72238       -7.33247       -2.86708
C          5.66641       -6.76421       -3.64461
C          6.76126       -6.12983       -3.11462
N          6.96734       -6.06498       -1.78796
C          6.04514       -6.64260       -0.97996
C          2.66682       -8.45919       -1.08730
S          2.33777       -9.30659       -2.56449
C          0.62130       -9.56583       -2.21462
C          0.39439       -8.93393       -1.02915
C          1.50447       -8.41047       -0.40369
O          1.33017       -7.88478        0.84560
C         -0.01210       -8.10569        0.99207
N         -0.53257       -7.75281        2.26633
O         -1.45678       -6.93079        2.27496
O         -0.04351       -8.32644        3.24787
C         -0.65213       -8.64535       -0.11737
C         -0.18979      -10.33151       -3.12265
C         -1.21667      -11.12433       -2.75766
C         -2.05384      -11.90111       -3.65392
C         -2.97060      -12.66332       -3.02760
C         -2.91294      -12.58001       -1.57886
S         -1.69076      -11.42889       -1.11321
C         -3.56759      -13.31534       -0.66150
C         -4.47653      -14.41598       -0.90405
C         -4.61508      -15.22669        0.15844
C         -3.82110      -14.81043        1.29368
S         -3.29099      -13.16493        1.08343
C         -3.46580      -15.60903        2.31031
C         -2.52797      -15.31328        3.38235
C         -1.20786      -15.07163        3.27119
C         -0.19073      -14.81395        4.32740
C         -0.26325      -15.12939        5.64811
C          0.80598      -14.93291        6.56422
N          1.67661      -14.78359        7.32860
C         -1.39419      -15.76439        6.22928
N         -2.30901      -16.29796        6.71566
C          1.03688      -14.32076        3.62738
C          0.85469      -14.44751        2.25081
C         -0.48618      -14.95545        1.94815
O         -0.85761      -15.24548        0.82951
C          1.83059      -14.15992        1.29936
C          3.09754      -13.74625        1.76522
C          3.27891      -13.57630        3.14510
C          2.25180      -13.82640        4.08796
S          4.88416      -13.05478        3.50727
C          5.33392      -13.11135        1.88299
C          4.30983      -13.46562        1.04547
Br         7.06939      -12.72707        1.29442
H          5.31071        3.22476        3.02147
H          3.95697        2.18086        2.31176
H          7.67666        2.11179        3.39821
H          8.84176       -0.10933        3.10343
H          9.46300       -2.26358        2.67140
H          9.65553       -4.69944        2.05438
H          8.29730       -6.62354        1.04840
H          5.49667       -7.21568        2.34444
H          3.54570       -8.32987        1.45642
H          5.51561       -6.84324       -4.71436
H          7.51107       -5.65809       -3.73777
H         -1.70862       -8.85952       -0.18134
H          0.08570      -10.29586       -4.17537
H         -1.93673      -11.87518       -4.72955
H         -3.66529      -13.30970       -3.54606
H         -4.93757      -14.59859       -1.86308
H         -5.19286      -16.14051        0.15214
H         -3.87823      -16.61581        2.35762
H         -3.01847      -15.35104        4.35008
H          1.62385      -14.28386        0.23915
H          2.46600      -13.64767        5.13426
H          4.41026      -13.54838       -0.03003
