101

C         13.00826       -8.22749       -4.17694
C         11.98117       -7.51754       -4.64773
C         12.08028       -6.33089       -5.45398
C         10.89195       -5.77422       -5.72904
C          9.76481       -6.47378       -5.13301
S         10.32762       -7.93909       -4.32021
C          8.48789       -6.04674       -5.10403
C          7.97334       -4.81534       -5.67656
C          6.75911       -4.47582       -5.21811
C          6.23230       -5.41577       -4.25442
S          7.20702       -6.86581       -4.21576
C          5.18318       -5.16891       -3.45559
C          4.76570       -6.07726       -2.44765
S          3.56120       -7.27296       -2.79142
C          3.63695       -7.96685       -1.20160
C          4.56210       -7.27296       -0.46229
C          5.17241       -6.21808       -1.14854
S          6.33215       -5.41918       -0.11812
C          5.92769       -6.59925        1.15387
S          6.59313       -6.69388        2.67145
O          4.95271       -7.51351        0.81410
C          2.81070       -9.07552       -0.88915
C          2.37291       -9.29214        0.35729
C          1.49302      -10.39691        0.76805
C          1.05883      -11.38361       -0.12708
C          0.23950      -12.39817        0.33351
C         -0.18512      -12.42143        1.67814
C          0.22572      -11.45322        2.57527
C          1.07416      -10.44556        2.11548
C         -1.06463      -13.54353        1.87490
C         -1.19845      -14.23476        0.65585
C         -0.36767      -13.56523       -0.45036
C          0.70236      -14.60174       -0.90666
C          1.66460      -14.18657       -2.01289
C         -1.27795      -13.09984       -1.61775
C         -2.36794      -12.09109       -1.24551
C         -1.97938      -15.37173        0.56336
C         -2.62871      -15.83091        1.71241
C         -2.52205      -15.11427        2.92145
C         -1.73146      -13.96746        3.00892
C         -3.42953      -17.04573        1.57777
C         -3.63867      -17.92245        2.56743
C         -4.37549      -19.11337        2.34483
S         -4.01778      -20.49726        3.31643
C         -5.17930      -21.51663        2.52409
C         -5.83354      -20.76619        1.57794
C         -5.38410      -19.44124        1.47677
S         -6.29247      -18.59128        0.25119
C         -7.19565      -20.08960       -0.04434
S         -8.40790      -20.29538       -1.15746
O         -6.83123      -21.16171        0.74728
C         -5.37370      -22.87819        2.89471
C         -4.36820      -23.63402        3.36152
C         -4.50202      -25.03478        3.70514
C         -3.50813      -25.82222        4.14607
C         -3.65377      -27.22938        4.42681
C         -2.50083      -27.83533        4.74486
C         -1.34609      -26.95107        4.73885
S         -1.86395      -25.30034        4.42202
C         -0.05866      -27.30982        4.90420
C          0.43566      -28.66148        5.10725
C          1.77235      -28.75442        5.16095
C          2.43584      -27.48028        5.01457
S          1.29797      -26.17686        4.85118
C          3.75568      -27.29541        4.99292
H         14.03528       -7.94700       -4.37837
H         12.84660       -9.10923       -3.56339
H         13.02781       -5.92860       -5.78366
H         10.78830       -4.86618       -6.30499
H          8.53063       -4.20659       -6.37423
H          6.23726       -3.57144       -5.49860
H          4.65825       -4.22086       -3.51595
H          2.53217       -9.72784       -1.71471
H          2.64971       -8.61129        1.16083
H          1.33543      -11.36920       -1.17347
H         -0.10235      -11.46452        3.60910
H          1.39847       -9.68436        2.82222
H          0.19422      -15.50888       -1.26170
H          1.30359      -14.91634       -0.04243
H          1.14091      -13.94299       -2.94099
H          2.34310      -15.01933       -2.23215
H          2.28912      -13.34027       -1.72125
H         -1.76930      -13.97389       -2.06519
H         -0.67383      -12.64564       -2.41192
H         -2.97802      -12.43014       -0.40339
H         -3.04058      -11.93915       -2.09630
H         -1.93829      -11.11712       -0.99116
H         -2.06270      -15.90216       -0.38065
H         -3.05586      -15.44166        3.80925
H         -1.64875      -13.43092        3.94769
H         -3.80039      -17.23194        0.57428
H         -3.19632      -17.76886        3.54915
H         -6.36217      -23.30325        2.74604
H         -3.37456      -23.20463        3.47038
H         -5.48887      -25.46827        3.55890
H         -4.60516      -27.73887        4.36075
H         -2.43694      -28.88990        4.96846
H         -0.21352      -29.52102        5.18928
H          2.31054      -29.68091        5.29331
H          4.44855      -28.12222        5.08649
H          4.18155      -26.30524        4.87385
