80

C          0.79719       -7.12585       -8.04116
C          1.27716       -6.26750       -7.13958
C          1.64357       -4.89769       -7.38350
C          2.27524       -4.32581       -6.34620
C          2.47527       -5.22568       -5.22134
S          1.58384       -6.72810       -5.49318
C          3.30589       -5.03627       -4.17661
C          4.15745       -3.88886       -3.94042
C          5.14515       -4.12264       -3.05114
C          5.12248       -5.47778       -2.53352
S          3.63485       -6.27611       -2.96983
C          6.13916       -6.04978       -1.88206
C          6.15751       -7.42360       -1.52998
S          5.74260       -8.07762        0.01335
C          6.01600       -9.74155       -0.48078
C          6.45305       -9.70336       -1.76246
C          6.52211       -8.44882       -2.32858
O          6.95282       -8.37119       -3.62216
C          7.14955       -9.71510       -3.86174
N          7.59452      -10.01960       -5.18053
O          6.94504      -10.87099       -5.80028
O          8.61628       -9.44341       -5.57425
C          6.88080      -10.56877       -2.78745
C          5.78504      -10.81447        0.42483
C          4.62429      -11.49249        0.46874
C          4.32699      -12.54408        1.41607
C          3.04210      -12.93657        1.40203
C          2.21917      -12.19797        0.45675
S          3.24937      -11.18885       -0.56134
C          0.87272      -12.15670        0.41311
C         -0.05271      -12.86606        1.27896
C         -1.28954      -12.34198        1.27760
C         -1.42942      -11.19341        0.40286
S         -0.02916      -11.04632       -0.62661
C         -2.46297      -10.33733        0.44060
C         -2.55008       -9.16394       -0.34611
S         -1.95849       -7.60814        0.14365
C         -2.56463       -6.79377       -1.28094
C         -3.12714       -7.74183       -2.06824
C         -3.14207       -9.01864       -1.54828
O         -3.74128       -9.98765       -2.29878
C         -4.08914       -9.22327       -3.39469
N         -4.73217       -9.94874       -4.43847
O         -5.83927       -9.53099       -4.80126
O         -4.11426      -10.90581       -4.91891
C         -3.76326       -7.86715       -3.31803
C         -2.41007       -5.39580       -1.46852
C         -3.26700       -4.48510       -0.97765
C         -3.16847       -3.07569       -1.27414
C         -4.17392       -2.34672       -0.77347
C         -5.14754       -3.11283       -0.01143
S         -4.65558       -4.80721        0.04325
C         -6.27241       -2.61603        0.54282
C         -6.74754       -1.24889        0.39637
C         -7.93220       -1.01233        0.97409
C         -8.46989       -2.15941        1.65650
S         -7.41655       -3.54278        1.52038
C         -9.63246       -2.17882        2.31219
H          0.64015       -6.84265       -9.07508
H          0.57782       -8.15557       -7.77120
H          1.45130       -4.40367       -8.32563
H          2.65087       -3.31292       -6.37119
H          4.05128       -2.94815       -4.46420
H          5.90656       -3.40468       -2.79188
H          7.04950       -5.48552       -1.68037
H          6.99089      -11.64417       -2.77373
H          6.57800      -11.04751        1.12524
H          5.06936      -12.94407        2.09356
H          2.64705      -13.68626        2.07297
H          0.23275      -13.70796        1.89378
H         -2.10085      -12.70985        1.89117
H         -3.26149      -10.49667        1.15915
H         -3.94628       -7.11219       -4.07109
H         -1.58684       -5.07849       -2.10393
H         -2.36677       -2.65753       -1.86755
H         -4.24534       -1.27895       -0.92015
H         -6.21871       -0.49296       -0.16478
H         -8.44672       -0.06243        0.93250
H        -10.26851       -1.30028        2.36077
H         -9.98631       -3.07067        2.81891
