100

C          4.83403        2.21900       -5.50384
C          3.89622        2.15871       -4.55750
C          3.50129        3.22753       -3.67836
C          2.70676        2.82341       -2.67532
C          2.45375        1.39451       -2.68645
S          3.03663        0.69584       -4.20704
C          1.96703        0.65427       -1.67472
C          1.56288        1.09983       -0.35448
C          1.29792        0.09769        0.50032
C          1.44850       -1.21557       -0.08603
S          1.88207       -1.08696       -1.76667
C          1.33053       -2.37644        0.57916
C          1.60812       -3.71517        0.01501
C          2.41949       -4.59733        0.72180
O          2.84442       -4.26664        2.00949
C          3.61060       -5.30600        2.62423
C          4.07629       -5.11025        4.06140
C          2.78417       -5.77937        0.06852
C          2.36989       -6.13524       -1.23202
O          2.77406       -7.34232       -1.76801
C          4.03803       -7.86180       -1.32782
C          3.90407       -8.81052       -0.14450
C          1.49460       -5.28751       -1.93516
C          1.11139       -4.10644       -1.26430
C          0.98488       -5.54011       -3.30845
O          1.44172       -6.68657       -3.93538
C          0.15725       -4.93599       -4.21640
C         -0.64835       -3.76096       -4.46745
O         -0.71979       -2.72902       -3.81646
N         -1.28364       -4.02388       -5.66165
C         -0.90233       -5.19786       -6.26352
O         -1.24383       -5.63074       -7.34001
C          0.01307       -5.77514       -5.31936
C          0.85017       -6.83965       -5.19231
C          1.11395       -7.90811       -6.07750
C          2.34109       -8.44640       -6.10418
C          2.69845       -9.63239       -6.84694
C          2.27373      -10.87335       -6.56561
C          2.78401      -12.06149       -7.20342
C          2.44385      -13.19338       -6.57013
C          1.62546      -12.98229       -5.38637
S          1.14876      -11.28849       -5.29287
C          1.35395      -13.88985       -4.42857
C          1.88431      -15.23936       -4.35712
C          1.73254      -15.81526       -3.15494
C          1.01734      -14.99048       -2.20643
S          0.41157      -13.54394       -2.97844
C          0.88539      -15.25952       -0.89755
C          0.16088      -14.42400        0.04881
C          0.69133      -13.81370        1.11856
C          0.12252      -12.77369        2.00808
C         -1.16129      -12.68874        2.43842
C         -1.58797      -11.71834        3.39373
N         -1.93245      -10.93666        4.17100
C         -2.15552      -13.62009        2.03077
N         -2.96546      -14.38857        1.70182
C          1.27317      -11.94134        2.46905
C          2.43800      -12.64307        2.14644
C          2.15568      -13.86931        1.40487
O          2.98084      -14.69769        1.08200
C          3.71689      -12.16932        2.32680
C          3.84181      -10.86406        2.80085
C          2.69880      -10.12987        3.15217
C          1.38427      -10.66001        3.01525
S          3.19128       -8.56097        3.69385
C          4.78238       -8.79437        3.15831
C          5.03188      -10.09496        2.85831
Br         6.15730       -7.54945        2.86717
H          5.39695        3.12459       -5.69062
H          5.08771        1.34300       -6.09499
H          3.84328        4.24349       -3.80864
H          2.33549        3.48120       -1.90363
H          1.51813        2.14100       -0.07180
H          1.02902        0.23910        1.53773
H          1.13132       -2.36482        1.64845
H          4.50991       -5.44720        2.01837
H          2.98290       -6.19589        2.61798
H          4.84598       -4.33942        4.13022
H          4.54015       -6.02966        4.43715
H          3.26068       -4.89076        4.74910
H          3.43588       -6.46006        0.58460
H          4.75023       -7.05405       -1.10947
H          4.47531       -8.42624       -2.15717
H          3.22145       -8.44009        0.62308
H          4.89149       -8.96665        0.29696
H          3.50678       -9.78327       -0.44149
H          0.42945       -3.42720       -1.76899
H         -1.89146       -3.36075       -6.11947
H          0.31153       -8.28557       -6.70869
H          3.14400       -8.00923       -5.51137
H          3.46334       -9.48209       -7.60534
H          3.42233      -12.02403       -8.07479
H          2.77661      -14.16884       -6.89253
H          2.41376      -15.71154       -5.17228
H          2.12043      -16.79273       -2.90256
H          1.38063      -16.13508       -0.47917
H         -0.86552      -14.22531       -0.24809
H          4.58488      -12.72427        1.98993
H          0.52403      -10.03604        3.24197
H          5.99678      -10.44940        2.52720
