87

C          1.69842       -1.26088        3.40318
S          0.86029       -2.32108        2.36290
C          0.54632       -3.50181        3.60760
C          1.24073       -3.12894        4.76007
C          1.87908       -1.82803        4.63415
C          2.61448       -1.18260        5.63264
C          2.71649       -1.95081        6.81027
S          3.63837       -1.27309        8.19845
C          2.09641       -3.23740        6.94557
O          2.24295       -3.94570        8.12001
C          1.32198       -3.87419        5.94984
C         -0.29241       -4.67120        3.29578
C         -1.45010       -4.80384        2.52530
C         -2.09107       -3.74029        1.85133
C         -3.23615       -4.13669        1.12424
C         -3.74427       -5.46465        1.10157
C         -3.15077       -6.53893        1.79544
C         -1.98118       -6.16491        2.49477
C         -1.22538       -7.02019        3.25134
S          0.16265       -6.24367        3.87850
C         -3.79927       -7.84757        1.85984
C         -3.45648       -8.91775        1.12209
C         -4.17654      -10.16494        1.17353
S         -4.30292      -11.10399       -0.28058
C         -5.25546      -12.39001        0.40707
C         -5.46069      -12.09190        1.76224
C         -4.82053      -10.84310        2.19417
C         -4.84520      -10.37860        3.52973
C         -5.57502      -11.18300        4.42519
S         -5.71052      -10.68537        6.14698
C         -6.20055      -12.38640        4.00735
O         -6.87970      -13.16895        4.91673
C         -6.17691      -12.88239        2.69054
C         -5.66570      -13.54459       -0.44154
S         -6.52280      -14.88590        0.27794
C         -6.65115      -15.77851       -1.14231
C         -6.03777      -15.13002       -2.16950
C         -5.48010      -13.84434       -1.80391
N         -4.84001      -13.06987       -2.72953
C         -4.72164      -13.65736       -3.97790
C         -5.30055      -14.96313       -4.28706
N         -5.19912      -15.66841       -5.49265
C         -5.80887      -15.08983       -6.67989
N         -5.97798      -15.70765       -3.38677
N         -4.00206      -12.91678       -4.97401
C         -3.78270      -11.51221       -4.61191
C         -3.29942      -13.47031       -6.03655
C         -3.22647      -12.94995       -7.27066
C         -2.44482      -13.47167       -8.32502
C         -1.69027      -14.63472       -8.44995
C         -0.97154      -14.55828       -9.67448
C          0.00136      -15.33188      -10.33120
C          0.52161      -14.86259      -11.54836
C          0.06947      -13.66703      -12.11558
C         -0.91640      -12.90090      -11.48990
C         -1.38966      -13.38235      -10.27300
O         -2.29872      -12.75576       -9.49128
H          2.04636       -0.30276        3.04015
H          3.06471       -0.20337        5.52271
H          4.63697       -0.73795        7.47970
H          2.78136       -3.38914        8.71474
H          0.87719       -4.83952        6.13875
H         -1.78301       -2.70673        1.85082
H         -3.77416       -3.37518        0.55813
H         -4.65661       -5.64934        0.53291
H         -1.37733       -8.07235        3.44930
H         -4.67299       -7.85273        2.50647
H         -2.63050       -8.83634        0.41790
H         -4.33975       -9.48713        3.87370
H         -5.27384       -9.42599        6.00000
H         -6.77773      -12.73719        5.78623
H         -6.69432      -13.80879        2.50884
H         -7.14032      -16.74120       -1.16717
H         -5.67548      -16.54421       -5.26656
H         -5.07622      -15.09409       -7.49179
H         -6.19423      -14.07505       -6.54192
H         -6.63451      -15.72481       -7.02079
H         -4.73168      -10.96405       -4.60111
H         -3.13269      -11.00972       -5.33991
H         -3.27815      -11.40951       -3.64544
H         -2.81053      -14.40756       -5.77541
H         -3.79444      -12.04628       -7.49432
H         -1.61172      -15.41926       -7.70988
H          0.36725      -16.25683       -9.89638
H          1.29690      -15.43400      -12.05409
H          0.49559      -13.32017      -13.05451
H         -1.27745      -11.96820      -11.90414
