101

C         -5.73489        4.65240       -5.56706
C         -5.58840        5.02917       -4.22305
O         -6.48224        5.99644       -3.83274
C         -5.97480        7.05090       -3.02097
C         -4.66265        4.35386       -3.40434
C         -3.90256        3.31216       -3.97374
C         -4.04660        2.95741       -5.31419
C         -4.96195        3.62683       -6.11296
C         -4.52862        4.60985       -1.96129
C         -3.35998        4.62398       -1.29719
C         -3.32395        4.98483        0.08101
O         -4.40862        5.54435        0.70510
C         -4.11620        5.83358        2.00301
C         -2.82202        5.43428        2.24694
C         -2.30257        4.89038        1.03155
C         -0.96763        4.34564        0.81986
O         -0.47149        4.22789       -0.29755
C         -0.19648        3.91137        2.04112
C         -5.06268        6.48156        2.86538
S         -6.21853        7.51161        2.15474
C         -6.97963        7.86757        3.64992
C         -6.29373        7.26011        4.69611
C         -5.20133        6.42106        4.23963
C         -4.36546        5.59602        5.18985
C         -4.99805        5.46055        6.58465
C         -6.02590        4.33536        6.60763
F         -6.74944        4.24808        5.47568
F         -5.39813        3.14635        6.77685
F         -6.88884        4.47836        7.63745
C         -5.55162        6.81439        7.05567
C         -6.65266        7.36889        6.15142
C         -8.11317        8.74011        3.69514
C         -9.00784        8.81896        2.69214
C        -10.09711        9.73817        2.69943
S         -9.90296       11.33436        3.27906
C        -11.54738       11.75241        3.04882
C        -12.23749       10.70114        2.45490
C        -11.37508        9.56730        2.18367
C        -11.87620        8.32196        1.49725
C        -13.26329        8.50781        0.87447
C        -14.21820        9.22123        1.84340
O        -14.30411        8.55652        3.11210
C        -14.93019        7.28326        3.07258
C        -13.70736       10.66090        2.08411
C        -12.00080       13.08647        3.40658
S        -13.02928       13.94665        2.34350
C        -13.06100       15.35602        3.31783
C        -12.22753       15.20087        4.41777
C        -11.65808       13.87259        4.50279
C        -10.75499       13.48033        5.64729
C        -10.83870       14.42657        6.85425
C        -12.01351       14.10448        7.77556
F        -12.77827       13.08811        7.32889
F        -11.54226       13.73501        8.99432
F        -12.82013       15.16550        7.98455
C        -10.80353       15.89234        6.39196
C        -11.96025       16.25826        5.45599
C        -13.81341       16.50649        2.93754
C        -14.98778       16.43956        2.29081
H         -6.46257        5.16289       -6.19242
H         -6.59710        7.93378       -3.20144
H         -4.93990        7.31436       -3.25973
H         -6.08998        6.80781       -1.96160
H         -3.20575        2.73862       -3.36261
H         -3.45294        2.13930       -5.72724
H         -5.08927        3.34456       -7.15502
H         -5.46244        4.81809       -1.44497
H         -2.42370        4.40383       -1.80013
H         -2.29274        5.55355        3.17918
H         -0.80205        3.22070        2.63598
H          0.08106        4.78119        2.64188
H          0.71435        3.38937        1.73389
H         -3.39398        6.09653        5.29454
H         -4.17406        4.60193        4.76760
H         -4.20150        5.17266        7.28404
H         -4.71972        7.53201        7.09095
H         -5.92533        6.73262        8.08312
H         -6.82577        8.41697        6.42047
H         -7.58733        6.82540        6.33064
H         -8.23226        9.34646        4.58882
H         -8.93950        8.16141        1.83018
H        -11.90675        7.50385        2.22731
H        -11.17755        8.02402        0.70634
H        -13.65712        7.52907        0.58112
H        -13.18247        9.09465       -0.04964
H        -15.22448        9.27856        1.41116
H        -14.89269        6.85854        4.07954
H        -14.40380        6.59620        2.40532
H        -15.97607        7.37944        2.76993
H        -14.30137       11.12706        2.87863
H        -13.84314       11.23721        1.16071
H         -9.72196       13.51524        5.27652
H        -10.94900       12.44862        5.96207
H         -9.92742       14.25795        7.44541
H         -9.85462       16.06549        5.86482
H        -10.79958       16.56719        7.25636
H        -11.71710       17.20947        4.96619
H        -12.87670       16.42478        6.03290
H        -13.42919       17.48422        3.21671
H        -15.45348       15.51043        2.01612
H        -15.52417       17.34950        2.03929
