88

C         -3.24550       -1.81505       -0.48143
S         -4.46649       -0.65907       -0.82761
C         -3.63743        0.57813        0.02267
C         -2.45911        0.12175        0.56244
C         -2.24341       -1.29400        0.30613
C         -1.13401       -2.02047        0.78068
C         -0.29133       -1.18064        1.55905
C         -0.48267        0.23142        1.76806
C         -1.57861        0.95560        1.26873
O         -1.82598        2.28318        1.45135
C         -0.68200        3.13031        1.52434
C         -0.88050       -3.42626        0.42690
C          0.21991       -4.11288        0.76659
N          0.57441       -5.39583        0.39330
C          1.69647       -6.08319        0.76997
S          2.50556       -5.72327        2.25885
C          3.63527       -6.94576        2.03383
N          4.56973       -7.21459        3.07508
O          4.82402       -8.40816        3.29131
O          5.06091       -6.24983        3.68480
C          3.46259       -7.63700        0.85479
C          2.32524       -7.14865        0.11680
C          1.86491       -7.70489       -1.13448
C          2.61290       -8.37165       -2.03216
N          2.20300       -8.90542       -3.23520
C          2.95090       -9.57012       -4.16820
C          4.05837      -10.33480       -3.86773
S          4.68005      -11.15603       -5.23136
C          3.49519      -10.46538       -6.25570
C          2.67033       -9.58303       -5.58373
N          1.74150       -8.82450       -6.24371
C          1.33923       -7.56053       -5.87553
C          0.48877       -6.72457       -6.47956
C          0.25406       -5.39944       -5.88982
C          1.06333       -4.27974       -6.17020
C          0.82023       -2.99909       -5.56642
N          1.61196       -1.94292       -5.86892
C          2.63587       -2.13131       -6.74748
C          2.86776       -3.33790       -7.30897
N          2.08957       -4.43118       -7.03582
C          3.90265       -3.57246       -8.26285
N          4.74498       -3.72357       -9.04424
C          3.39773       -0.95424       -7.07907
N          4.01141       -0.01981       -7.38011
C         -0.23435       -2.80306       -4.65801
C         -1.07130       -3.90542       -4.33582
C         -0.81430       -5.24318       -4.96363
N         -1.66714       -6.19143       -4.53703
S         -2.71133       -5.46209       -3.47818
N         -2.11464       -3.91765       -3.48707
C         -0.40809       -1.54604       -3.91670
C          0.27734       -1.30031       -2.79390
C          0.23038       -0.07339       -2.04434
C          1.11095       -0.03721       -1.03473
C          1.88042       -1.25761       -0.87387
S          1.41809       -2.42318       -2.10453
C          2.80752       -1.51533        0.06554
C          3.22597       -0.64568        1.15053
C          4.25530       -1.12963        1.86161
C          4.70840       -2.41095        1.39320
S          3.73463       -3.01274        0.09735
C          5.78072       -3.08427        1.81733
H         -3.35789       -2.81443       -0.87401
H         -4.06319        1.57015        0.08162
H          0.61849       -1.59957        1.98708
H          0.29986        0.74473        2.32339
H         -1.03302        4.14692        1.73085
H         -0.15055        3.14635        0.56676
H         -0.00538        2.85725        2.33910
H         -1.60521       -3.92026       -0.20820
H          0.98922       -3.62708        1.35710
H         -0.06495       -5.82041       -0.26950
H          4.08679       -8.47356        0.56371
H          0.81225       -7.56936       -1.36906
H          3.67858       -8.49989       -1.86104
H          1.23678       -8.69320       -3.48858
H          4.51347      -10.49141       -2.90061
H          3.50790      -10.70535       -7.30898
H          1.54698       -9.02961       -7.22449
H          1.83351       -7.21366       -4.97110
H         -0.03492       -6.96834       -7.39565
H         -1.05713       -0.80034       -4.36068
H         -0.45180        0.73263       -2.27712
H          1.20621        0.80856       -0.37109
H          2.76217        0.30768        1.36101
H          4.72438       -0.60970        2.68761
H          6.43546       -2.69789        2.58643
H          6.03852       -4.04223        1.37369
