73

C          1.77475       -1.65220       -1.91119
O          1.41128       -2.72114       -1.13087
C          0.05041       -2.71685       -1.16907
C         -1.01879       -3.46321       -0.66899
C         -0.91910       -4.62515        0.17166
O         -1.88974       -5.27314        0.54842
N          0.34213       -5.00403        0.53117
C         -2.14494       -2.80398       -1.18642
O         -1.72985       -1.70857       -1.95469
C         -0.37728       -1.70358       -1.91844
C          0.69451       -0.97025       -2.43414
C         -3.52632       -3.10175       -1.05191
C         -4.53288       -2.22654       -1.11593
C         -5.75348       -2.94366       -0.95404
C         -5.43538       -4.36933       -0.78881
O         -6.20579       -5.28719       -0.61813
N         -4.04270       -4.36971       -0.86432
C         -6.72031       -2.04487       -1.03027
O         -6.25195       -0.71858       -1.23289
C         -4.86367       -0.81031       -1.28284
O         -4.09401        0.12073       -1.42219
C         -8.16576       -2.24649       -0.98604
S         -8.85972       -2.47831       -2.60482
C        -10.34230       -3.35617       -2.28626
C        -10.92323       -4.19317       -3.21339
S        -12.38847       -4.86857       -2.64122
C        -12.24891       -4.03549       -1.15206
C        -11.09797       -3.28097       -1.08713
S        -10.66971       -2.32807        0.31950
C         -8.90115       -2.20418        0.20241
C         -8.26146       -2.03639        1.51327
C         -8.05822       -0.82799        2.05980
C         -7.40760       -0.68294        3.31762
S         -7.79447        0.66611        4.31388
C         -6.64370        0.23509        5.49428
C         -5.99021       -0.93372        5.17035
C         -6.43169       -1.46115        3.91976
C         -6.39141        1.01526        6.65516
C         -6.17225        1.71210        7.60761
C         -5.91092        2.56919        8.70896
C         -6.23793        3.87069        8.66012
C         -5.98930        4.79222        9.75051
C         -6.30008        6.09474        9.77947
C         -6.02472        6.96707       10.89518
C         -6.39881        8.23879       10.69487
C         -7.00421        8.47957        9.39520
S         -7.08341        6.97221        8.48498
C         -7.43799        9.66511        8.92389
C         -7.38150       10.93678        9.62454
C         -7.85660       11.97195        8.91809
C         -8.32758       11.59889        7.60981
S         -8.15573        9.89214        7.32449
C         -8.83634       12.43507        6.70191
H          2.84421       -1.50755       -1.99895
H          1.17332       -4.50615        0.23395
H          0.45050       -5.82065        1.11633
H          0.69518       -0.10248       -3.07474
H         -3.47775       -5.20319       -0.71935
H        -10.56539       -4.44359       -4.20281
H        -13.01598       -4.14933       -0.39801
H         -7.99206       -2.95880        2.02063
H         -8.39832        0.07375        1.55299
H         -5.21529       -1.37851        5.78300
H         -6.01918       -2.35624        3.47023
H         -5.43629        2.13755        9.58446
H         -6.71082        4.26128        7.75966
H         -5.49721        4.36223       10.62368
H         -5.55681        6.61630       11.80476
H         -6.25747        9.01292       11.43533
H         -6.98710       11.04545       10.62425
H         -7.88681       12.98984        9.28035
H         -8.93251       13.49693        6.89750
H         -9.17016       12.07777        5.73226
