72

C         -0.85140        0.54991       -4.45889
O         -0.80313       -0.77894       -4.12222
C         -1.96722       -0.99890       -3.45203
C         -2.63449       -2.05625       -2.82033
C         -2.14039       -3.39858       -2.70583
O         -2.73229       -4.30481       -2.12770
N         -0.93398       -3.65331       -3.28911
C         -3.80442       -1.44346       -2.36226
O         -3.82266       -0.09086       -2.70319
C         -2.67224        0.13099       -3.38466
C         -2.00336        1.17701       -4.02760
C         -4.92441       -2.01710       -1.64569
O         -5.28249       -3.34619       -1.79123
C         -6.37973       -3.51630       -1.01124
C         -7.27481       -4.52984       -0.66524
C         -7.21473       -5.88976       -1.11355
O         -7.63484       -6.84109       -0.46618
N         -6.68943       -6.07315       -2.35937
C         -8.16458       -3.88408        0.19193
O         -7.79744       -2.54606        0.35613
C         -6.69540       -2.36845       -0.41886
C         -5.80699       -1.35579       -0.79450
C         -9.35251       -4.40181        0.84050
O         -9.81943       -3.85415        2.03137
C        -10.93170       -4.57082        2.35128
C        -11.90418       -4.62702        3.35750
C        -11.97084       -3.77628        4.51543
O        -12.99110       -3.53778        5.15350
N        -10.78924       -3.21017        4.90216
C        -12.73159       -5.66769        2.92871
O        -12.27393       -6.19278        1.72105
C        -11.15929       -5.48429        1.41123
C        -10.19011       -5.42639        0.40897
C        -13.89991       -6.23274        3.57039
O        -14.36510       -5.76683        4.78603
C        -15.46394       -6.50679        5.07110
C        -16.43512       -6.59523        6.07122
C        -16.50689       -5.76801        7.24809
O        -17.35706       -5.87717        8.12419
N        -15.54016       -4.80731        7.36768
C        -17.22839       -7.65464        5.62511
O        -16.73893       -8.16621        4.42099
C        -15.65605       -7.40855        4.11396
C        -14.68717       -7.28711        3.11293
C        -18.40783       -8.23120        6.23073
O        -19.26789       -7.48277        7.01673
C        -20.23734       -8.34292        7.41672
C        -21.40273       -8.33882        8.18431
C        -22.02388       -7.24996        8.87656
O        -23.06206       -7.37041        9.51720
N        -21.39811       -6.04225        8.77661
C        -21.81109       -9.65427        8.08441
O        -20.98007      -10.41603        7.29752
C        -20.00918       -9.55127        6.89562
C        -18.86206       -9.54123        6.09881
H          0.01404        0.90149       -5.00662
H         -0.39008       -2.94683       -3.77176
H         -0.56311       -4.59005       -3.22172
H         -2.29016        2.20780       -4.15919
H         -6.31146       -5.31488       -2.91326
H         -6.60590       -7.01697       -2.70900
H         -5.79315       -0.31534       -0.50657
H         -9.92522       -3.32557        4.38774
H        -10.80736       -2.57525        5.68756
H        -10.10328       -6.02892       -0.48204
H        -14.81985       -4.63658        6.66998
H        -15.57573       -4.19566        8.17057
H        -14.56198       -7.85767        2.20568
H        -20.50326       -5.92498        8.31297
H        -21.79535       -5.25730        9.27163
H        -22.65877      -10.18742        8.49648
H        -18.42041      -10.34528        5.53066
