98

C         19.44164       16.61024        9.41313
N         18.92523       15.35898        9.19098
C         19.60065       14.76314        8.15885
C         20.58217       15.63249        7.73652
C         20.47682       16.80459        8.52536
C         19.27461       13.49703        7.61779
C         18.94942       12.46856        7.08294
C         18.49791       11.33840        6.36231
C         18.61378       10.09037        6.83350
C         18.09274        8.98546        6.09805
S         18.83287        7.42056        6.31876
C         17.63231        6.75814        5.34343
C         16.75112        7.63363        4.78260
C         17.01801        8.95791        5.20757
S         15.65453        6.67024        3.86356
C         16.26427        5.14485        4.39067
C         16.00551        3.75194        4.37683
C         16.88022        3.07439        5.22871
S         18.17738        4.10963        5.80115
C         17.36775        5.42560        5.13744
C         16.90320        1.71359        5.67388
C         15.83152        0.92053        5.84036
C         15.92204       -0.45460        6.28686
C         14.77783       -1.14230        6.14838
C         13.70300       -0.35852        5.56699
S         14.16090        1.33995        5.55974
C         12.58983       -0.83185        4.97663
C         12.22772       -2.22534        4.79049
C         11.37835       -2.41667        3.76674
C         11.04853       -1.18377        3.07802
S         11.45067        0.17795        4.09252
C         10.62032       -1.12833        1.80522
C         10.53110        0.05261        0.91643
C          9.53487        0.09709       -0.07636
C          9.57377        1.11565       -1.02875
C         10.56858        2.11696       -0.96940
C         11.53559        2.10154        0.01435
C         11.53231        1.04926        0.92802
C         10.41798        3.02606       -2.07982
C          9.34715        2.60016       -2.88574
C          8.70192        1.34356       -2.27578
C          7.21195        1.64201       -1.92171
C          6.98297        2.77748       -0.91573
C          8.81731        0.16548       -3.29184
C         10.23709       -0.24623       -3.70552
C          9.00677        3.28613       -4.04708
C          9.75904        4.41366       -4.40380
C         10.81540        4.84642       -3.58073
C         11.14735        4.15400       -2.41265
C          9.44202        5.15936       -5.62370
C          9.99243        4.87378       -6.81376
C          9.63186        5.61075       -7.96951
N         10.22447        5.26990       -9.16337
C          9.72292        6.04223      -10.17775
C          8.81826        6.92192       -9.62968
C          8.76472        6.65512       -8.23776
C         10.10954        5.90126      -11.53636
C         10.45125        5.75231      -12.67631
C         10.86777        5.55529      -14.01887
C         11.41976        6.54497      -14.72942
H         19.02513       17.25286       10.17678
H         18.14799       14.94571        9.68888
H         21.28226       15.45291        6.93088
H         21.08359       17.69681        8.44385
H         18.04353       11.53851        5.39683
H         19.09362        9.90111        7.79197
H         16.41610        9.81659        4.93937
H         15.17090        3.30699        3.85193
H         17.88164        1.30548        5.92243
H         16.83931       -0.88254        6.66779
H         14.67849       -2.18812        6.39862
H         12.64984       -3.02945        5.37494
H         11.04594       -3.38737        3.42697
H         10.40687       -2.06459        1.29132
H          8.76861       -0.67047       -0.11369
H         12.31009        2.85868        0.05981
H         12.35538        1.00997        1.63690
H          6.72056        0.74476       -1.52335
H          6.66928        1.90442       -2.84046
H          7.25107        2.46580        0.09852
H          5.92417        3.06023       -0.90340
H          7.55275        3.67868       -1.16050
H          8.27328        0.42427       -4.21032
H          8.33021       -0.72923       -2.88793
H         10.83493        0.59243       -4.07421
H         10.18288       -0.97742       -4.51992
H         10.77369       -0.71941       -2.87683
H          8.17281        2.95498       -4.65825
H         11.38613        5.73388       -3.84484
H         11.96041        4.50126       -1.78472
H          8.72435        5.96446       -5.50281
H         10.70714        4.05816       -6.90687
H         10.91024        4.53890       -9.29096
H          8.25114        7.67048      -10.16785
H          8.14395        7.16546       -7.51253
H         10.73393        4.57236      -14.45904
H         11.56440        7.53543      -14.30949
H         11.74016        6.37950      -15.75210
