82

C         12.11889       -2.65963       -1.81771
S         10.43432       -2.46247       -1.99061
C         10.26060       -1.83535       -0.39185
C         11.49437       -1.74442        0.25234
C         12.56133       -2.23044       -0.58848
C         13.94963       -2.28959       -0.21986
N         15.06855       -2.33367        0.07983
C         11.74687       -1.23809        1.63658
F         10.62881       -0.82285        2.27942
F         12.31656       -2.19391        2.41381
F         12.60093       -0.18290        1.62057
C          8.93837       -1.53054        0.06352
C          8.23224       -2.49457        0.67224
N          6.94983       -2.48896        1.19319
C          6.31994       -3.55233        1.79257
S          6.76427       -5.18707        1.40897
C          5.66444       -5.84081        2.50046
N          5.58030       -7.26503        2.67522
O          4.78921       -7.66527        3.54092
O          6.29334       -7.98959        1.96949
C          4.92367       -4.88156        3.14663
C          5.27050       -3.55245        2.71550
C          4.64220       -2.36721        3.24289
C          3.35584       -2.29338        3.63442
C          2.73754       -1.07541        4.13222
C          1.42317       -0.79811        4.14735
C          0.86522        0.45451        4.60377
C         -0.46677        0.53804        4.47329
C         -1.07928       -0.65767        3.91930
S          0.16930       -1.85103        3.54730
C         -2.39506       -0.87995        3.74154
C         -3.48279        0.02520        4.07130
C         -4.69811       -0.52981        3.95722
C         -4.65666       -1.91174        3.53133
S         -3.04387       -2.39905        3.11589
C         -5.72361       -2.71854        3.49221
C         -5.75883       -4.13900        3.10699
C         -5.57311       -5.21707        3.99278
C         -5.96436       -6.55362        3.63354
N         -5.69295       -7.57727        4.47370
C         -5.08417       -7.31906        5.66079
C         -4.77290       -6.03439        6.03387
N         -5.03201       -4.97120        5.20965
C         -4.13524       -5.71797        7.27206
N         -3.61135       -5.49403        8.28239
C         -4.77959       -8.45615        6.47404
N         -4.51161       -9.38167        7.12223
C         -6.66885       -6.83854        2.44771
C         -6.59451       -5.84179        1.43199
C         -6.10773       -4.45741        1.77141
N         -6.10213       -3.62586        0.71736
S         -6.56368       -4.51435       -0.59885
N         -6.96175       -5.93881        0.14246
C         -7.61002       -7.99237        2.33946
S         -7.84780       -8.84564        0.87451
C         -9.18085       -9.76794        1.48022
C         -9.30210       -9.59689        2.85372
C         -8.45568       -8.51673        3.31367
C         -8.53449       -8.00890        4.66067
N         -8.59168       -7.56984        5.73304
C        -10.19101      -10.33934        3.80837
F        -10.85554      -11.39056        3.27664
F         -9.46761      -10.83695        4.84526
F        -11.12455       -9.51260        4.34512
C         -9.89867      -10.56280        0.53582
C        -11.21605      -10.78632        0.62169
H         12.70191       -3.07754       -2.62935
H          8.53213       -0.54066       -0.11720
H          8.72723       -3.45472        0.80939
H          6.46457       -1.59609        1.13200
H          4.17864       -5.11583        3.89923
H          5.25574       -1.47077        3.29995
H          2.71298       -3.16911        3.55533
H          3.42605       -0.32069        4.50764
H          1.47793        1.25295        4.99783
H         -1.03184        1.41414        4.75917
H         -3.33337        1.04201        4.40751
H         -5.62079       -0.01251        4.18760
H         -6.69777       -2.32388        3.77693
H         -9.36616      -10.95304       -0.33049
H        -11.84668      -10.39814        1.41425
H        -11.71815      -11.38620       -0.13347
