89

C          9.57914        5.06708        4.10530
N          8.62789        5.67990        3.32196
C          8.18394        4.75920        2.41182
C          7.30361        4.59440        1.31256
C          7.44889        3.26959        0.92060
N          8.35480        2.65640        1.76422
C          8.82046        3.58701        2.64761
C          9.73199        3.75001        3.71711
C          6.82890        2.51994       -0.12028
C          7.43061        1.46700       -0.69496
N          6.97079        0.65377       -1.71263
C          7.61799       -0.40912       -2.28638
S          9.33704       -0.62894       -2.14086
C          9.31458       -2.00711       -3.09854
N         10.54498       -2.64786       -3.42418
O         10.77705       -2.80649       -4.62915
O         11.25731       -3.02158       -2.48420
C          8.06282       -2.36707       -3.52120
C          7.06732       -1.44516       -3.04743
C          5.66456       -1.57324       -3.34678
C          5.01921       -2.74141       -3.53707
C          3.64335       -2.76579       -3.89161
O          2.99778       -1.74818       -4.59986
C          2.68650       -3.72629       -3.69071
C          2.48797       -5.02399       -3.11837
O          3.31633       -5.74360       -2.60107
N          1.14606       -5.28553       -3.33434
C          0.48208       -4.29229       -4.02682
O         -0.68175       -4.27392       -4.38121
C          1.48422       -3.29807       -4.24708
C          1.67392       -2.09704       -4.87039
C          0.76768       -1.34657       -5.66035
C          1.10357       -0.15997       -6.18329
C          0.16780        0.61122       -6.97897
C          0.17059        1.94427       -7.12033
C         -0.84268        2.68369       -7.83498
C         -0.75690        4.01084       -7.66563
C          0.33034        4.41945       -6.79190
S          1.30352        3.01874       -6.34965
C          0.57539        5.66419       -6.34235
C         -0.14447        6.87064       -6.70466
C          0.35995        7.98817       -6.16244
C          1.50160        7.74859       -5.31085
S          1.84312        6.04503       -5.17660
C          2.30336        8.65068       -4.73043
C          2.23101       10.07830       -4.94453
C          3.23176       10.80515       -5.47077
C          3.25976       12.22397       -5.88055
C          2.54962       13.23886       -5.33760
C          2.72349       14.59645       -5.73217
N          2.86406       15.70329       -6.04596
C          1.60832       13.04871       -4.28694
N          0.83107       12.88923       -3.43713
C          4.36862       12.35139       -6.87806
C          5.12097       11.17538       -6.86116
C          4.51801       10.18818       -5.95741
O          5.00120        9.10812       -5.69071
C          6.26168       10.96397       -7.62995
C          6.67785       12.00772       -8.48494
C          5.90175       13.17549       -8.54338
C          4.73250       13.35870       -7.76096
S          6.56792       14.30954       -9.66409
C          7.86533       13.29174      -10.02106
C          7.81713       12.09510       -9.35730
Br         9.23462       13.76001      -11.21019
H         10.07562        5.62694        4.88721
H          8.29259        6.63331        3.37589
H          6.66717        5.33892        0.85439
H          8.65688        1.69103        1.76913
H         10.40483        3.01863        4.14242
H          5.85665        2.85312       -0.47274
H          8.41510        1.17218       -0.34589
H          6.03943        0.89951       -2.04001
H          7.87266       -3.23051       -4.14791
H          5.09185       -0.65191       -3.42022
H          5.52551       -3.69539       -3.42477
H          0.70502       -6.14466       -3.05909
H         -0.22473       -1.75913       -5.82177
H          2.08937        0.26561       -5.99526
H         -0.63083        0.04173       -7.45149
H         -1.62443        2.19965       -8.40460
H         -1.46777        4.70319       -8.09213
H         -0.99456        6.87563       -7.37152
H         -0.04340        8.97409       -6.34433
H          3.15018        8.30383       -4.13674
H          1.26200       10.50996       -4.71481
H          6.80832       10.02561       -7.56731
H          4.16905       14.27662       -7.87978
H          8.55938       11.31335       -9.46750
