93

C         -4.14173       -1.05309       -2.45685
C         -4.61478       -2.33666       -2.25166
C         -3.76656       -3.43683       -1.86327
N         -4.34780       -4.65224       -1.72345
C         -5.68849       -4.78910       -1.90661
C         -6.47100       -3.71862       -2.26188
N         -5.93450       -2.48479       -2.44440
C         -7.88313       -3.82233       -2.46166
N         -9.03105       -3.92576       -2.62033
C         -6.22002       -6.10154       -1.69090
N         -6.67704       -7.15506       -1.51699
C         -2.36602       -3.27026       -1.63584
C         -1.85627       -1.94946       -1.84596
C         -2.76822       -0.83583       -2.26651
N         -2.14910        0.34069       -2.43268
S         -0.55387        0.09579       -2.07389
N         -0.58771       -1.51912       -1.71572
C         -1.46319       -4.35260       -1.19425
S         -1.99563       -5.68894       -0.19888
C         -0.45082       -6.50004       -0.18772
C          0.40186       -5.69065       -0.85197
C         -0.14120       -4.54907       -1.39579
N          0.80383       -3.81210       -2.04679
N          2.02952       -4.42033       -1.97180
C          1.77416       -5.55734       -1.25345
C         -0.31009       -7.75402        0.45812
C          0.86152       -8.12303        0.99756
C          1.02436       -9.41174        1.66254
C          0.79172       -9.59638        3.02976
C          0.34961       -8.56074        3.97602
O          0.12834       -7.39875        3.69463
S          0.17017       -9.19704        5.58805
C          0.69550      -10.78523        5.08895
O          0.83163      -11.70269        5.87578
C          0.96160      -10.84796        3.63640
C          1.34160      -11.98991        2.89457
C          1.51710      -11.79270        1.51829
C          1.39656      -10.54488        0.94205
C          1.70848      -10.66334       -0.47227
O          1.79564       -9.76830       -1.28516
O          1.91162      -11.98020       -0.69782
C          1.77083      -12.72970        0.42381
O          1.81763      -13.94036        0.46145
C          1.41491      -13.30275        3.54717
C          2.26534      -14.30504        3.27486
C          2.19832      -15.64777        3.89658
C          1.02844      -16.25784        4.41768
C          1.02848      -17.58359        4.96960
N         -0.10604      -18.11627        5.48264
C         -1.24022      -17.36851        5.46587
C         -1.25811      -16.11747        4.90942
N         -0.13746      -15.57484        4.37684
C         -2.42479      -15.28828        4.84403
N         -3.35917      -14.60323        4.77788
C         -2.39698      -17.95984        6.06533
N         -3.34988      -18.40796        6.55194
C          2.18342      -18.37682        4.96628
C          3.37648      -17.83293        4.42124
C          3.38692      -16.43466        3.88056
N          4.59301      -16.07434        3.40344
S          5.60466      -17.36924        3.60438
N          4.56563      -18.45234        4.30775
C          2.19821      -19.76953        5.42808
C          2.43888      -20.16477        6.68614
C          2.61191      -21.53329        7.20073
C          1.91302      -22.63190        6.82438
C          2.06699      -23.89533        7.45960
N          2.20244      -24.92635        7.97643
C          0.90556      -22.57673        5.81576
N          0.09120      -22.51798        4.99158
C          3.52705      -21.41986        8.37043
C          3.59270      -20.07343        8.74564
C          2.84666      -19.23373        7.78938
O          2.63778      -18.04217        7.88196
C          4.33229      -19.60967        9.82641
C          5.07481      -20.55743       10.56890
C          5.04657      -21.90315       10.16801
C          4.28708      -22.35562        9.06066
S          6.03867      -22.87959       11.19229
C          6.45986      -21.55754       12.15185
C          5.91251      -20.37783       11.72356
Br         7.56844      -21.69591       13.65535
H         -4.79834       -0.24263       -2.75395
H          0.70065       -2.88497       -2.44681
H          2.59993       -6.22391       -1.04297
H         -1.18230       -8.40170        0.50806
H          1.73998       -7.48417        0.97361
H          0.67568      -13.44113        4.33173
H          3.04878      -14.18450        2.52937
H          2.04111      -20.48094        4.62244
H          4.34715      -18.55271       10.07770
H          4.33164      -23.40348        8.78354
H          6.08256      -19.42347       12.20739
