86

C          0.35081       -6.87815       10.45263
C          0.67694       -5.92688        9.50563
C          0.24144       -5.99856        8.12846
N          0.47908       -4.92776        7.33926
C          1.35936       -3.97654        7.78504
C          1.88663       -4.01562        9.05401
N          1.47546       -4.94619        9.94990
C          2.94861       -3.15602        9.49089
N          3.83125       -2.48018        9.82260
C          1.74406       -2.98536        6.82490
N          2.05131       -2.17531        6.05167
C         -0.35088       -7.17279        7.57297
C         -0.54602       -8.23514        8.52023
C         -0.26495       -8.04482        9.97992
N         -0.63255       -9.08389       10.74135
S         -1.21412      -10.24207        9.71142
N         -0.94143       -9.49506        8.25332
C         -0.68505       -7.38300        6.12292
C         -1.77643       -8.17057        5.67762
C         -2.92840       -8.62770        6.47162
O         -3.32149       -8.05207        7.46774
S         -3.77209       -9.94127        5.69757
C         -2.94134       -9.63808        4.19183
O         -3.10067      -10.30738        3.18781
C         -1.96463       -8.54769        4.33402
C         -1.25868       -7.93149        3.30560
C         -0.29926       -7.01941        3.72477
C          0.06384       -6.86329        5.05329
C          1.36482       -6.19734        5.00111
O          2.23841       -6.23630        5.83662
O          1.45984       -5.64442        3.76349
C          0.47806       -6.07736        2.93961
O          0.24578       -5.70080        1.81113
C         -1.47559       -8.20783        1.88487
C         -0.82480       -9.18208        1.22702
C         -0.98780       -9.45313       -0.19786
C         -0.70225      -10.63688       -0.80152
O         -0.86620      -10.84245       -2.17861
C         -1.29839       -9.76888       -2.87732
C         -1.55892       -8.52927       -2.26193
C         -1.95007       -7.55866       -3.14674
S         -2.04275       -8.19415       -4.74402
C         -1.53101       -9.75634       -4.22801
O         -1.41613       -8.33817       -0.93321
C         -0.32966      -11.83588       -0.08402
C          0.72156      -12.61734       -0.37371
C          1.02257      -13.77500        0.39233
S          2.63614      -14.35387        0.67143
C          2.12463      -15.72949        1.64004
C          0.77203      -15.66295        1.70636
C          0.18776      -14.62293        1.02381
N         -1.17267      -14.64882        1.11470
N         -1.57279      -15.69536        1.90412
C         -0.39311      -16.29991        2.25381
C          3.09161      -16.63347        2.16662
C          2.80730      -17.92729        2.38334
C          3.78467      -18.87025        2.89686
C          3.57967      -20.17489        3.13975
C          2.36341      -20.92621        2.96239
C          2.46461      -22.21125        3.32282
C          3.78105      -22.59559        3.80501
S          4.86162      -21.20158        3.75872
C          4.13196      -23.82787        4.22304
C          3.24953      -24.98233        4.28252
C          3.83665      -26.10096        4.72771
C          5.22686      -25.91968        5.05194
S          5.74609      -24.27874        4.78109
C          6.03843      -26.87769        5.50627
H          0.62026       -6.76771       11.49695
H         -2.19266       -7.56666        1.37585
H         -0.13114       -9.83041        1.75965
H         -2.18596       -6.52304       -2.94701
H         -1.43039      -10.56516       -4.93751
H         -0.98002      -12.04849        0.76012
H          1.40310      -12.34351       -1.17727
H         -1.85192      -14.02834        0.69062
H         -0.44577      -17.17516        2.88435
H          4.09339      -16.24897        2.36593
H          1.82154      -18.30955        2.14799
H          4.77467      -18.46055        3.09730
H          1.44936      -20.49744        2.57902
H          1.63483      -22.89910        3.25288
H          2.20786      -24.94915        3.99951
H          3.32799      -27.04781        4.83698
H          5.68517      -27.89075        5.66600
H          7.08117      -26.67657        5.73049
