73

C         -4.31832        7.61688       -8.78895
S         -5.22368        6.81172       -7.55389
C         -3.88176        5.90066       -7.15837
C         -2.77003        6.17545       -7.89656
C         -3.00875        7.17357       -8.86645
C         -1.70099        5.32363       -7.42327
O         -0.55830        5.26005       -7.82072
C         -2.35264        4.51616       -6.31463
C         -3.64463        4.90423       -6.21275
C         -1.77479        3.54121       -5.43545
C         -0.51009        3.14226       -5.26498
C         -0.11494        2.27087       -4.19044
O          1.21984        1.89517       -4.11368
C          1.38203        1.00871       -3.10912
C          0.18705        0.77659       -2.48745
C         -0.76306        1.62854       -3.11152
N         -2.06254        1.63784       -2.68744
C         -2.94835        2.68814       -2.52894
C         -2.67931        3.97981       -2.28483
C         -3.58757        5.09073       -2.55160
C         -3.19255        6.38037       -2.74700
O         -4.10183        7.38578       -3.11768
C         -5.35370        6.97865       -3.40685
C         -5.76713        5.64923       -3.21641
C         -7.06402        5.43371       -3.60715
S         -7.77269        6.88648       -4.20729
C         -6.32771        7.78279       -3.93949
O         -4.92971        4.69746       -2.74158
C         -1.85150        6.93702       -2.67563
C         -0.72606        6.38825       -3.15978
C          0.49350        7.11558       -3.18927
O          0.51129        8.49452       -3.25712
C          1.78794        8.89517       -3.41351
C          2.63035        7.81597       -3.39548
C          1.81870        6.66225       -3.25301
N          2.19918        5.34937       -3.21327
C          3.37704        4.75049       -3.63259
C          4.58484        5.27580       -3.86846
C          5.65263        4.55149       -4.44860
S          5.75312        4.43460       -6.18474
C          7.28029        3.77202       -6.07807
C          7.70723        3.59459       -4.79417
C          6.77688        4.02048       -3.83130
C          9.02930        3.02992       -4.85081
O          9.77090        2.75201       -3.92247
C          9.28800        2.86188       -6.33359
C          8.22939        3.34851       -7.02000
C         10.48271        2.25951       -6.85129
C         10.46609        1.21348       -7.68684
H         -4.80880        8.37336       -9.39003
H         -2.28086        7.55072       -9.57461
H         -4.37261        4.53424       -5.50499
H         -2.52449        3.12063       -4.78844
H          0.27887        3.49080       -5.93013
H          2.38628        0.63256       -2.96875
H          0.02672        0.10507       -1.65642
H         -2.45059        0.75737       -2.34830
H         -3.96444        2.36301       -2.74833
H         -1.65925        4.22721       -2.01390
H         -7.63430        4.51663       -3.59216
H         -6.26802        8.82982       -4.20189
H         -1.81504        7.94989       -2.27331
H         -0.71628        5.40635       -3.60876
H          1.94023        9.95752       -3.52730
H          3.69678        7.90518       -3.49035
H          1.46922        4.65268       -3.06510
H          3.22307        3.68349       -3.80352
H          4.80498        6.30948       -3.66306
H          6.93072        4.00177       -2.76084
H          8.11260        3.39412       -8.09277
H         11.42859        2.64417       -6.47499
H          9.53609        0.76985       -8.03147
H         11.39076        0.74755       -8.01129
