78

C        -10.84187       -6.89889        0.11110
S        -11.66494       -5.68360       -0.81412
C        -10.37276       -4.63890       -0.62509
C         -9.35495       -5.16492        0.11533
C         -9.59746       -6.48010        0.55014
C         -8.32451       -4.17025        0.21659
O         -7.25507       -4.26929        0.78958
C         -8.88587       -2.98128       -0.55448
C        -10.09777       -3.32739       -1.04778
C         -8.21639       -1.71824       -0.73138
C         -7.27228       -1.25582        0.10372
C         -6.58708        0.01182       -0.01321
C         -7.16530        1.23783       -0.04122
O         -6.40926        2.41652       -0.11381
C         -5.06554        2.25143       -0.11075
C         -4.46718        0.97965       -0.08640
C         -3.09695        1.02098       -0.11725
S         -2.54390        2.65232       -0.13065
C         -4.15099        3.27196       -0.11204
O         -5.19925       -0.15392       -0.03812
C         -8.58868        1.50694       -0.00961
C         -9.40746        1.19031        1.01172
C        -10.80863        1.50764        1.03580
S        -11.35990        2.88876        0.12235
C        -12.99604        2.71915        0.57445
C        -13.14557        1.62906        1.39962
C        -11.88879        0.95047        1.72589
C        -11.84844       -0.14719        2.63376
C        -10.69955       -0.99327        3.09605
C        -13.14837       -0.47218        3.13209
C        -14.35630        0.19169        2.78090
C        -14.40555        1.27302        1.89477
C        -13.93696        3.68937        0.12889
C        -14.61275        3.59338       -1.04186
O        -15.54175        4.56293       -1.44316
C        -15.76227        5.55544       -0.55142
C        -15.06193        5.64246        0.66978
C        -15.45099        6.70695        1.44066
S        -16.69091        7.60527        0.65357
C        -16.68424        6.55656       -0.71311
O        -14.12163        4.74209        1.02813
C        -14.51309        2.48077       -1.95625
C        -14.11821        2.59982       -3.23180
C        -14.04292        1.47113       -4.09773
S        -13.49268        1.70734       -5.73960
C        -13.69044        0.08824       -6.08074
C        -14.14204       -0.64553       -5.02693
C        -14.34907        0.12745       -3.87163
C        -14.26676       -2.01189       -5.46101
O        -14.60957       -2.97932       -4.81325
C        -13.85561       -1.96430       -6.92711
C        -13.49960       -0.69630       -7.22722
C        -13.81379       -3.12486       -7.77150
C        -13.98389       -3.09596       -9.09910
H        -11.32012       -7.85452        0.28377
H         -8.92043       -7.08301        1.14176
H        -10.76329       -2.71135       -1.63559
H         -8.52758       -1.11904       -1.58486
H         -6.94943       -1.84221        0.96174
H         -2.39754        0.19750       -0.12515
H         -4.33136        4.33728       -0.10277
H         -8.94399        2.02919       -0.89421
H         -8.97780        0.69233        1.87097
H         -9.82771       -0.39299        3.35501
H        -10.44326       -1.73134        2.33094
H        -10.96179       -1.53672        4.01213
H        -13.23960       -1.29351        3.84721
H        -15.28673       -0.15438        3.23117
H        -15.33720        1.76601        1.64562
H        -15.08641        6.99767        2.41558
H        -17.35559        6.72485       -1.54287
H        -14.78401        1.51963       -1.52850
H        -13.83726        3.57793       -3.61997
H        -14.71366       -0.26945       -2.93273
H        -13.13402       -0.33186       -8.17502
H        -13.65284       -4.07915       -7.27035
H        -14.17674       -2.17546       -9.64202
H        -13.94934       -4.01237       -9.67945
