92

C          0.83918       -2.47272        1.55203
S          1.19485       -3.62842        2.78262
C          0.64500       -4.94837        1.82938
C          0.60946       -6.35629        2.30084
C         -0.74404       -6.70516        2.90378
C          0.21635       -4.50508        0.61802
C          0.34361       -3.12710        0.46925
N         -0.07621       -2.56162       -0.69160
C         -0.56174       -3.54962       -1.45865
S         -0.51444       -5.25416       -0.84055
N         -1.13747       -3.36544       -2.67743
C         -0.91895       -2.32595       -3.53110
S          0.64257       -1.59559       -3.69891
C          0.10331       -0.58650       -4.93041
N          1.01906        0.31935       -5.53708
O          0.70865        1.51670       -5.50944
O          2.01531       -0.16877       -6.08491
C         -1.22720       -0.72564       -5.22206
C         -1.82191       -1.76515       -4.43062
C         -3.20709       -2.14315       -4.50364
C         -3.98254       -1.97411       -5.58656
C         -5.38795       -2.29902       -5.61909
C         -6.28241       -1.77888       -6.48343
C         -5.98754       -0.71224       -7.50702
C         -7.72351       -2.21583       -6.43997
N         -7.88545       -3.24170       -7.44074
C         -8.80527       -3.23186       -8.44960
C         -9.00867       -4.19663       -9.35188
C         -9.95062       -4.08609      -10.44179
C        -11.26792       -3.84184      -10.37306
C        -12.11327       -3.77999      -11.53896
C        -13.41267       -3.64510      -11.24996
C        -13.70300       -3.58578       -9.82562
S        -12.19975       -3.61287       -8.91008
C        -14.93519       -3.56657       -9.28101
C        -16.17361       -3.65735      -10.03194
C        -17.26654       -3.77199       -9.27033
C        -16.99266       -3.73867       -7.85393
S        -15.28715       -3.50521       -7.55098
C        -17.95050       -3.91148       -6.93011
C        -17.79636       -3.82302       -5.49695
C        -18.45287       -4.47708       -4.52176
C        -18.30819       -3.85933       -3.16039
O        -17.56964       -2.96081       -2.80964
C        -19.29332       -4.52062       -2.30227
C        -19.55462       -4.18354       -0.97960
C        -20.49057       -4.94391       -0.27334
C        -21.12961       -6.03483       -0.92299
C        -22.02726       -6.82755       -0.19411
C        -22.30069       -6.53392        1.13735
C        -21.70497       -5.45243        1.77062
C        -20.79956       -4.65741        1.06738
F        -23.15495       -7.30849        1.81853
C        -20.85770       -6.31519       -2.28083
C        -19.94491       -5.54701       -2.99629
C        -19.42508       -5.58691       -4.41077
C        -19.73432       -6.54685       -5.31891
C        -19.10822       -6.68772       -6.59320
N        -18.66801       -6.86833       -7.64907
C        -20.72238       -7.54913       -5.09127
N        -21.53539       -8.36462       -4.92967
H          1.00115       -1.41403        1.69524
H          1.39482       -6.53036        3.04587
H          0.82119       -7.03853        1.46847
H         -0.97012       -6.06786        3.76555
H         -0.75357       -7.74680        3.23832
H         -1.55078       -6.57671        2.17375
H         -1.77599       -4.09518       -2.97421
H         -1.74283       -0.12411       -5.96173
H         -3.65745       -2.54645       -3.59735
H         -3.55491       -1.57553       -6.50242
H         -5.72774       -3.03905       -4.89434
H         -5.04237       -0.19394       -7.32459
H         -6.76483        0.05979       -7.48733
H         -5.95571       -1.14376       -8.51200
H         -8.39153       -1.36288       -6.61202
H         -7.98931       -2.62053       -5.45668
H         -7.20024       -3.99038       -7.44524
H         -9.39752       -2.31841       -8.48276
H         -8.41396       -5.10528       -9.32464
H         -9.49894       -4.26504      -11.41635
H        -11.72659       -3.85171      -12.54616
H        -14.17308       -3.59644      -12.01482
H        -16.21631       -3.68043      -11.11039
H        -18.26341       -3.89540       -9.67008
H        -18.96488       -4.07889       -7.27875
H        -17.10583       -3.02836       -5.19988
H        -19.02730       -3.35270       -0.51724
H        -22.52069       -7.68408       -0.64616
H        -21.94412       -5.23917        2.80783
H        -20.33468       -3.81472        1.57585
H        -21.38086       -7.15469       -2.72238
