92

C          3.51797       -9.28595        0.54052
C          2.42138       -8.96255       -0.28358
N          1.40473       -8.03566       -0.12723
C          1.39664       -7.10529        0.98832
C          2.19633       -5.84327        0.71394
C          0.47962       -8.11292       -1.16046
C          1.01512       -9.05029       -2.06422
C          2.21517       -9.58481       -1.50587
C          3.14201      -10.56343       -1.93885
C          4.23467      -10.88941       -1.12811
C          4.41502      -10.26078        0.09889
C          0.33794       -9.32428       -3.27286
C         -0.86076       -8.68120       -3.56635
C         -1.40563       -7.78388       -2.65875
C         -0.76343       -7.48535       -1.44158
C         -1.44112       -6.59002       -0.49861
C         -2.36301       -7.07399        0.35287
C         -3.11105       -6.22732        1.22175
S         -4.65399       -5.63353        0.69926
C         -4.90499       -4.82622        2.16291
N         -6.09321       -4.05248        2.35346
O         -5.92573       -2.85944        2.63584
O         -7.17435       -4.64260        2.26843
C         -3.88592       -4.98617        3.06620
C         -2.85903       -5.82547        2.53129
C         -1.72457       -6.25417        3.29221
C         -0.58523       -5.55285        3.41208
C          0.52888       -6.03512        4.16561
C          0.91198       -7.32626        4.49051
C          2.13819       -7.40400        5.23656
C          2.65717       -6.13867        5.48306
S          1.68023       -4.91453        4.77652
C          3.83356       -5.97366        6.22524
C          4.52307       -7.07796        6.75758
C          4.01345       -8.34351        6.48910
C          2.84785       -8.51004        5.73279
S          4.97567       -9.56967        7.20244
C          6.05791       -8.44682        7.92520
C          5.70651       -7.15538        7.57871
C          7.15662       -8.89273        8.76750
S          8.07868      -10.28083        8.28415
C          9.04283      -10.22572        9.66765
N         10.05948      -11.21904        9.89720
O         10.73966      -11.08047       10.92307
O         10.18570      -12.13394        9.07351
C          8.73430       -9.16538       10.48502
C          7.65560       -8.36745        9.96126
C          7.13909       -7.20607       10.64393
C          7.85951       -6.42280       11.46978
C          7.33105       -5.25870       12.16126
C          8.00082       -4.44546       12.99923
C          7.41173       -3.29111       13.63640
C          8.26073       -2.60432       14.41471
C          9.60334       -3.16147       14.46565
S          9.67771       -4.61849       13.46811
C         10.64616       -2.65768       15.15663
C         10.63351       -1.45472       15.97554
C         11.80440       -1.17113       16.55570
C         12.84002       -2.12352       16.24488
S         12.25985       -3.38080       15.18799
C         14.09574       -2.07781       16.69653
H          3.67890       -8.80112        1.49707
H          1.81921       -7.62822        1.85107
H          0.36815       -6.87888        1.24721
H          3.20463       -6.07458        0.35426
H          2.29878       -5.25023        1.62711
H          1.70356       -5.22236       -0.03990
H          3.00675      -11.06753       -2.89951
H          4.94486      -11.64342       -1.45950
H          5.26585      -10.52447        0.72164
H          0.75119      -10.04634       -3.97279
H         -1.37560       -8.89974       -4.49891
H         -2.35718       -7.31321       -2.89967
H         -1.22465       -5.53098       -0.58960
H         -2.57415       -8.14198        0.38763
H         -3.88744       -4.55490        4.06091
H         -1.84205       -7.20446        3.80812
H         -0.48844       -4.59453        2.90370
H          0.35511       -8.20508        4.18478
H          4.21303       -4.97067        6.40857
H          2.47265       -9.51407        5.54195
H          6.26064       -6.28247        7.90311
H          9.24607       -8.97742       11.42339
H          6.09223       -6.96075       10.47526
H          8.91133       -6.64516       11.63787
H          6.28434       -5.03428       11.96237
H          6.37830       -3.00915       13.48833
H          7.96861       -1.71705       14.95616
H          9.75585       -0.83672       16.10694
H         11.97660       -0.31471       17.19422
H         14.43524       -1.28486       17.35441
H         14.82318       -2.83502       16.42061
