77

C          6.17826       -2.07517       -3.66130
S          5.96964       -3.77656       -3.68999
C          5.89736       -3.84626       -1.99439
N          5.70578       -5.09967       -1.31539
O          5.66560       -5.05105       -0.07795
O          5.59466       -6.12677       -1.99607
C          6.03584       -2.61063       -1.40067
C          6.19894       -1.57767       -2.37388
C          6.36265       -0.18358       -2.10347
C          6.90708        0.30985       -0.97947
C          7.08318        1.70567       -0.76318
C          6.76273        2.80542       -1.56492
C          7.16578        4.01542       -0.96815
C          7.74259        3.80187        0.26002
S          7.83647        2.21617        0.72779
C          8.13326        5.04013        0.80107
C          7.82182        6.03992       -0.08925
C          7.16840        5.44752       -1.26122
C          6.66496        6.06557       -2.34647
C          6.03408        5.34267       -3.39745
N          5.51628        4.74213       -4.24549
C          6.71450        7.47875       -2.48150
N          6.74410        8.63170       -2.56127
C          8.24705        7.30163        0.38930
C          8.80633        7.20969        1.66918
S          8.84435        5.54275        2.20618
C          9.32579        8.26731        2.53005
S         10.68848        7.92515        3.55224
C         10.67584        9.46544        4.23342
N         11.63453        9.83033        5.24164
O         11.58694       11.00152        5.64180
O         12.42788        8.96822        5.63958
C          9.69464       10.26922        3.70796
C          8.90590        9.58651        2.71869
C          7.81647       10.21821        2.02765
C          7.06117       11.22488        2.50121
C          5.99375       11.76644        1.72718
C          5.82368       11.82484        0.33958
C          4.61482       12.45698       -0.00936
C          3.90048       12.81170        1.10836
S          4.63514       12.47699        2.55661
C          2.67392       13.36637        0.70282
C          2.61384       13.38723       -0.67120
C          3.85870       12.82557       -1.20773
C          4.23443       12.68708       -2.49264
C          5.50314       12.14174       -2.85225
N          6.54694       11.73781       -3.14118
C          3.40111       13.11439       -3.56201
N          2.71960       13.47562       -4.42743
C          1.37191       13.89974       -1.11743
C          0.53189       14.21742       -0.03978
S          1.31057       13.88145        1.47967
C         -0.84071       14.70069       -0.08015
S         -1.87813       14.18162       -1.37131
C         -3.17063       15.08484       -0.77790
N         -4.40622       15.10665       -1.48799
O         -5.40953       14.75168       -0.85711
O         -4.37895       15.52511       -2.65150
C         -2.89745       15.73986        0.39257
C         -1.54012       15.52641        0.80591
C         -0.98099       16.14205        1.97727
C         -1.65875       16.47308        3.08502
H          6.28866       -1.53245       -4.59172
H          6.00849       -2.45774       -0.32707
H          6.03332        0.49263       -2.88930
H          7.26321       -0.36933       -0.20750
H          6.28437        2.70553       -2.53054
H          8.16510        8.22998       -0.15787
H          9.55212       11.30078        4.01166
H          7.58393        9.84375        1.03902
H          7.22094       11.62791        3.49879
H          6.55420       11.42683       -0.35367
H          1.06762       14.01471       -2.15189
H         -3.61448       16.36955        0.90692
H          0.08631       16.35405        1.97801
H         -2.72263       16.29407        3.19714
H         -1.14263       16.92335        3.92774
