74

C          5.25218       10.07186        8.92081
S          4.21695       10.93748        9.97668
C          3.38333       11.60130        8.65817
N          2.30970       12.50029        8.91616
O          2.38596       13.61416        8.38125
O          1.38126       12.08835        9.62226
C          3.86934       11.21161        7.43617
C          4.96199       10.29673        7.58755
C          5.66069        9.69009        6.49549
C          6.68731        8.82498        6.61300
C          7.30982        8.25667        5.46894
C          7.47285        8.77146        4.19952
C          8.11483        7.87332        3.29333
C          8.45619        6.67945        3.91978
S          8.01975        6.69858        5.57884
C          9.07096        5.64703        3.20688
C          9.34277        5.77836        1.83479
C          9.01483        6.97698        1.21465
C          8.42154        8.01726        1.93060
S          9.42073        6.96156       -0.45170
C          9.98665        5.34570       -0.39154
C          9.91439        4.85282        0.89777
C         10.43608        4.66094       -1.58267
C         10.99921        5.21129       -2.71814
C         11.27421        4.24997       -3.74859
C         10.91847        2.96660       -3.34746
S         10.27990        2.96327       -1.75180
C         11.09050        1.87200       -4.20186
C         11.61401        2.03301       -5.49620
C         11.97038        3.31561       -5.89653
C         11.81278        4.40794       -5.03702
S         12.58034        3.32097       -7.50077
C         12.37201        1.62637       -7.70260
C         11.85958        1.07478       -6.54280
C         12.71198        0.95283       -8.94429
S         12.57902        1.74915      -10.47771
C         13.15059       -0.32609       -9.17135
C         13.47291       -1.48725       -8.37604
O         13.34399       -1.61308       -7.16882
N         13.91383       -2.42937       -9.28352
C         14.32116       -3.76157       -8.91597
C         13.80269       -2.02499      -10.60065
O         14.01141       -2.69284      -11.59909
C         13.35994       -0.65213      -10.54053
C         13.06555        0.36123      -11.41785
C         13.07683        0.43141      -12.87557
S         11.74669        1.24611      -13.66470
C         12.40164        0.99607      -15.18986
N         11.72249        1.48678      -16.34420
O         11.45756        0.65437      -17.22032
O         11.49693        2.70222      -16.39484
C         13.56736        0.28089      -15.17531
C         13.98020       -0.04613      -13.83378
C         15.19596       -0.76208      -13.55453
C         16.01638       -1.32136      -14.45937
H          6.01870        9.44160        9.34906
H          3.45520       11.54642        6.48906
H          5.29969        9.94626        5.50090
H          7.05299        8.51571        7.58326
H          7.13085        9.75823        3.91201
H          9.32578        4.72035        3.71683
H          8.16899        8.94845        1.42866
H         10.23413        3.85570        1.17290
H         11.20088        6.27051       -2.82680
H         10.80656        0.87870       -3.86271
H         12.10187        5.40174       -5.37292
H         11.64185        0.01984       -6.42632
H         14.57030       -3.81476       -7.85304
H         15.18671       -4.05838       -9.51690
H         13.49632       -4.44578       -9.13317
H         14.10498        0.02467      -16.08026
H         15.48459       -0.88881      -12.51534
H         15.84556       -1.27428      -15.52933
H         16.88889       -1.87765      -14.13645
