93

C        -10.42176       11.93214        1.12262
O        -10.87818       13.16327        0.78042
C         -9.82853       13.83353        0.24500
C         -8.68803       13.05458        0.24093
C         -7.34815       13.48386       -0.23496
C         -9.09305       11.79613        0.79284
C         -8.35065       10.58764        0.98393
C         -7.30644       10.21869        0.23460
C         -6.56139        8.98500        0.28633
C         -6.35234        8.17413        1.32942
C         -5.52986        7.02569        1.13273
O         -4.53801        6.99881        0.17014
C         -3.94413        5.78854        0.18605
C         -4.51099        4.97812        1.13981
C         -4.14412        3.57203        1.42987
C         -5.51794        5.78066        1.75752
C         -6.37442        5.36582        2.81837
C         -7.60406        4.85785        2.64027
C         -8.37203        4.32983        3.74358
C         -9.63334        4.69735        4.02516
C        -10.40170        4.14164        5.10383
S         -9.83491        2.81432        6.03073
C        -11.21941        2.73077        7.01933
C        -12.16290        3.66213        6.61571
C        -11.64827        4.53706        5.57963
C        -12.42935        5.74687        5.12781
C        -13.45607        6.19146        6.19090
C        -12.77678        6.87382        7.38996
O        -11.56196        7.10181        7.39492
C        -13.67540        7.29295        8.54599
F        -14.98012        7.42252        8.17401
F        -13.65823        6.39227        9.56515
F        -13.32110        8.49372        9.07857
C        -14.32859        4.98867        6.58401
C        -13.53078        3.84077        7.21497
C        -11.28015        1.82799        8.15210
O        -12.08718        2.09273        9.23887
C        -11.85068        1.15747       10.19008
C        -10.91458        0.24584        9.76143
C        -10.33549       -0.89392       10.51453
C        -10.59334        0.64901        8.43330
C         -9.67163       -0.02360        7.58519
C         -9.96852       -1.12182        6.87427
C         -8.98081       -1.71360        6.00595
C         -8.70660       -3.02647        5.95923
C         -7.73055       -3.68868        5.13809
C         -6.91306       -3.16259        4.12562
O         -6.84023       -1.92801        3.63095
S         -5.84103       -4.32969        3.39592
C         -6.53786       -5.47972        4.37893
C         -7.48022       -5.09272        5.26487
N         -7.83229       -6.23548        5.93060
C         -7.15940       -7.31296        5.41558
C         -6.36059       -6.80743        4.45723
S         -5.39292       -7.85647        3.58554
C         -6.08312       -9.13872        4.54140
C         -7.00330       -8.72140        5.49960
H        -11.15986       11.27101        1.55775
H        -10.03979       14.84364       -0.07804
H         -7.32772       14.55646       -0.45264
H         -7.07550       12.96072       -1.15632
H         -6.58708       13.28226        0.52535
H         -8.70857        9.91370        1.76188
H         -6.98600       10.85264       -0.58809
H         -6.09119        8.74199       -0.66939
H         -6.78359        8.35595        2.31051
H         -3.15119        5.65169       -0.53590
H         -3.36351        3.22157        0.74595
H         -5.01185        2.91568        1.31017
H         -3.76746        3.47468        2.45218
H         -5.96642        5.44343        3.82438
H         -8.02946        4.75861        1.64370
H         -7.84245        3.58878        4.33873
H        -10.10511        5.46411        3.41649
H        -12.95446        5.49166        4.19841
H        -11.74896        6.57503        4.89606
H        -14.09373        6.96182        5.73757
H        -14.83160        4.61981        5.67950
H        -15.13213        5.27839        7.26952
H        -14.10315        2.91127        7.09732
H        -13.43605        4.03221        8.28830
H        -12.40073        1.28374       11.11239
H        -10.68385       -0.91137       11.55119
H         -9.24243       -0.82003       10.53117
H        -10.60487       -1.84427       10.04287
H         -8.66305        0.38482        7.54784
H        -10.96497       -1.55742        6.90142
H         -8.44355       -0.98316        5.41567
H         -9.25436       -3.66555        6.65249
H         -7.69393       -1.50238        3.77571
H         -8.50542       -6.28811        6.68652
H         -5.76161      -10.15035        4.33586
H         -7.51856       -9.38977        6.17649
