74

N         -5.08653       -7.02314       -4.82658
C         -3.94468       -6.96272       -5.04173
C         -2.53587       -6.90288       -5.28635
S         -1.89839       -6.09397       -6.65227
C         -0.28280       -6.44240       -6.20745
C          0.86021       -5.97019       -7.04401
F          0.47741       -5.25603       -8.13375
F          1.69617       -5.17253       -6.33098
F          1.60372       -7.01022       -7.50044
C         -0.23522       -7.17576       -5.03405
C         -1.53183       -7.43918       -4.49267
C         -1.80836       -8.16636       -3.28446
C         -1.01750       -8.24541       -2.19633
C         -1.36444       -8.92109       -0.91432
S         -3.02923       -9.58367       -0.80440
C         -2.83511      -10.96708        0.24340
C         -3.58329      -12.11605        0.12286
S         -3.20551      -13.25134        1.34765
C         -2.04249      -12.19807        2.03744
C         -1.92755      -11.02339        1.32879
S         -0.81540       -9.73771        1.75435
C         -0.47461       -8.97473        0.17550
C          0.87648       -8.40035        0.14212
C          1.12387       -7.12907        0.49411
C          2.44529       -6.62969        0.49077
N          2.77667       -5.61085        1.38289
C          4.11987       -5.27738        1.27973
C          4.62602       -6.06544        0.29285
C          3.60668       -6.88394       -0.19137
S          4.18386       -7.87888       -1.45209
O          4.11803       -9.23178       -0.94668
O          3.49842       -7.42339       -2.64563
C          5.83852       -7.20043       -1.32124
C          6.91009       -7.67106       -2.16474
C          8.19130       -7.27752       -2.06374
C          9.29829       -7.73885       -2.85614
C         10.36014       -6.90707       -3.20270
C         10.64003       -5.46119       -2.91033
F          9.68109       -4.86750       -2.15277
F         11.80728       -5.30714       -2.23193
F         10.74235       -4.72285       -4.04533
S         11.52295       -7.74729       -4.15240
C         10.65880       -9.20958       -4.07335
C         11.12270      -10.40012       -4.70940
N         11.46570      -11.37764       -5.22629
C          9.49043       -9.08369       -3.34375
C          8.58815      -10.18895       -3.16789
C          8.63609      -11.06840       -2.15255
C          7.72586      -12.15019       -2.03324
S          7.24850      -12.80579       -0.48556
C          6.17831      -13.99371       -1.17950
C          6.25018      -13.86588       -2.51801
C          5.76079      -14.40285       -3.75396
N          6.28706      -13.79190       -4.86275
N          7.13991      -12.85378       -4.33910
C          7.09719      -12.88294       -2.97674
C          5.87230       -6.26067       -0.34277
H          0.70154       -7.50725       -4.59374
H         -2.77675       -8.65979       -3.26489
H         -0.04804       -7.75129       -2.21906
H         -4.33901      -12.34607       -0.61644
H         -1.50005      -12.50109        2.92226
H          1.65998       -9.10015       -0.13426
H          0.31197       -6.48280        0.81869
H          2.13601       -5.18925        2.04285
H          4.55626       -4.51802        1.91564
H          6.60623       -8.39870       -2.91442
H          8.43397       -6.53117       -1.30975
H          7.81755      -10.27154       -3.92879
H          9.37078      -10.94125       -1.35928
H          5.61027      -14.67755       -0.56471
H          5.05324      -15.20853       -3.90189
H          7.70549      -12.27750       -4.94940
H          6.75134       -5.70347       -0.04801
