82

C          1.01314       -0.50893       14.08936
C          1.46440       -0.81559       12.80483
C          0.63311       -1.51410       11.93180
C         -0.62405       -1.88828       12.40621
N         -1.08850       -1.60830       13.64834
C         -0.25956       -0.92253       14.45856
C          1.02157       -1.83473       10.55939
C          1.89567       -2.80922       10.26107
C          2.07020       -3.21363        8.90390
S          0.91645       -4.32053        8.25690
C          1.68503       -4.35978        6.74662
C          2.81615       -3.57271        6.69079
C          3.62795       -3.45525        5.43392
C          3.05377       -2.90983        7.96464
C          4.13399       -1.99223        8.24974
C          5.33387       -2.02037        7.65204
C          6.40318       -1.06619        7.82345
C          7.37800       -0.99851        6.90392
C          8.59369       -0.23130        7.06213
C          9.80280       -0.69004        6.69955
C         11.05458       -0.05217        7.02859
C         12.10722       -0.87962        6.93444
C         11.76174       -2.22092        6.48905
S         10.08686       -2.24333        5.94794
C         12.53356       -3.32223        6.55178
C         13.86225       -3.41200        7.12668
C         14.30928       -4.66918        7.26661
C         13.38140       -5.67218        6.78899
S         11.99850       -4.91982        6.03319
C         13.55499       -6.99519        6.93715
C         12.62164       -7.95610        6.44020
S         11.39951       -8.52629        7.50967
C         10.64257       -9.42514        6.28017
C         11.31642       -9.37099        5.07630
C         10.85991      -10.08750        3.84559
C         12.49852       -8.54456        5.18465
C         13.39433       -8.32125        4.07640
C         14.70096       -8.02801        4.15517
C         15.52858       -7.82325        2.99458
C         16.36299       -6.77760        2.89650
C         17.25023       -6.57945        1.74792
C         17.97312       -7.64125        1.18880
C         18.82224       -7.42978        0.10178
C         18.94613       -6.12178       -0.35345
N         18.28655       -5.05796        0.17063
C         17.45463       -5.31731        1.20784
C         19.56810       -8.56799       -0.44767
C         19.92104       -8.69705       -1.73250
H          1.63443        0.04487       14.78238
H          2.45393       -0.49352       12.49099
H         -1.31762       -2.44373       11.77948
H         -0.65511       -0.69918       15.44684
H          0.48628       -1.29576        9.78099
H          2.39868       -3.38505       11.03336
H          1.26700       -4.96190        5.95039
H          3.06963       -3.82038        4.56437
H          4.53528       -4.06203        5.51038
H          3.89967       -2.41573        5.22975
H          3.93303       -1.20548        8.97389
H          5.56920       -2.82994        6.96754
H          6.43651       -0.47678        8.73455
H          7.31298       -1.61707        6.00820
H          8.51000        0.70933        7.59992
H         11.11415        0.96788        7.38002
H         13.11359       -0.58719        7.19673
H         14.42028       -2.54855        7.45893
H         15.26129       -4.92304        7.71200
H         14.43193       -7.38080        7.44713
H          9.73036       -9.96332        6.49996
H          9.89978      -10.58841        4.00899
H         11.59172      -10.84705        3.55300
H         10.72878       -9.38601        3.01523
H         12.95543       -8.39968        3.08326
H         15.20638       -7.94511        5.11200
H         15.44797       -8.56340        2.20113
H         16.38911       -6.01089        3.66729
H         17.86715       -8.64083        1.60228
H         19.61315       -5.86945       -1.17547
H         16.93903       -4.44230        1.59926
H         19.81018       -9.36602        0.25073
H         19.67952       -7.95581       -2.48728
H         20.45083       -9.58431       -2.06437
