64

C         -2.71453        4.49194        2.13335
C         -1.76570        4.07434        2.98089
C         -0.32356        4.11613        2.68610
C          0.54719        3.19906        3.26796
N          1.88322        3.17902        3.05260
C          2.37886        4.12685        2.21599
C          1.61241        5.10781        1.58972
C          2.19725        6.10622        0.70540
C          3.47054        6.37592        0.26877
C          3.40087        7.53059       -0.58261
C          4.59183        8.06524       -1.23863
C          4.68674        9.51262       -1.63394
O          5.56667        7.34409       -1.41861
C          2.05057        7.90258       -0.62862
C          1.34338        8.96010       -1.31586
C          1.67617       10.28505       -1.47008
C          0.73789       10.90520       -2.35160
C          0.94448       12.25514       -2.86576
C          0.47235       12.69141       -4.22611
O          1.66451       13.03486       -2.23008
C         -0.30205        9.99149       -2.47652
C         -1.62453       10.09789       -3.04518
C         -2.32372       11.17564       -3.55222
C         -3.54207       10.69323       -4.10889
C         -4.52104       11.43668       -4.89782
C         -4.00271       12.55789       -5.76996
O         -5.71286       11.13566       -4.91711
C         -3.64136        9.36395       -3.71403
C         -4.69950        8.43730       -3.90139
C         -4.93009        7.49805       -2.97178
C         -5.97847        6.47424       -3.04914
C         -6.17018        5.60961       -1.96679
C         -7.13098        4.60464       -2.03786
C         -7.88009        4.49107       -3.19720
N         -7.73572        5.30300       -4.26287
C         -6.79330        6.26940       -4.16340
O         -2.45979        9.01785       -3.10091
O          0.10552        8.80177       -1.89284
O          1.34190        7.01026        0.14521
C          0.23770        5.08975        1.85846
H         -3.76173        4.43656        2.40790
H         -2.48804        4.88222        1.14613
H         -2.05020        3.66909        3.94591
H          0.18899        2.42515        3.93480
H          3.45173        4.06311        2.07025
H          4.37004        5.82861        0.52124
H          4.51536       10.13919       -0.75462
H          3.99530        9.72827       -2.44878
H          5.69372        9.73580       -1.99905
H          2.53633       10.78691       -1.05837
H         -0.27477       12.03867       -4.66393
H          1.31837       12.69769       -4.91666
H          0.06303       13.70438       -4.14258
H         -2.00765       12.20530       -3.56786
H         -3.44400       13.28768       -5.17982
H         -4.84237       13.07265       -6.24594
H         -3.36170       12.14139       -6.55339
H         -5.30856        8.54491       -4.79117
H         -4.31280        7.47345       -2.07365
H         -5.57202        5.70817       -1.06303
H         -7.28669        3.92283       -1.21104
H         -8.63671        3.72062       -3.30082
H         -6.71464        6.88882       -5.05205
H         -0.39587        5.85346        1.41350
