78

C          4.89417        0.81781       -2.38650
O          4.73215        1.65300       -1.30896
C          4.56314        1.11059       -0.08254
C          4.40282        1.88949        1.03030
F          4.40047        3.19786        1.00498
S          4.21789        0.98532        2.44846
C          4.90258       -0.52156       -2.38918
S          4.70781       -1.52641       -0.99569
C          4.53236       -0.27459        0.23103
C          4.35286       -0.50947        1.58646
C          4.27414       -1.73224        2.31678
C          3.11523       -2.37219        2.53415
C          2.98901       -3.60178        3.28154
C          1.72791       -4.04662        3.38217
C          0.75405       -3.20729        2.70823
S          1.56076       -1.83132        1.95911
C         -0.57565       -3.40357        2.64749
C         -1.32978       -4.47318        3.27289
C         -2.65676       -4.36965        3.10991
C         -3.05065       -3.22432        2.32254
S         -1.66148       -2.33382        1.77144
C         -4.31866       -2.88739        2.05367
C         -4.73810       -1.78878        1.19762
C         -6.00552       -1.45334        0.92440
C         -6.39015       -0.47223       -0.06101
C         -7.69712       -0.51115       -0.35904
C         -8.43832       -1.50923        0.39570
S         -7.40476       -2.20720        1.63486
C         -9.69399       -1.93276        0.16220
C        -10.55238       -1.51029       -0.92658
C        -11.67362       -2.23633       -1.04322
C        -11.79824       -3.27603       -0.04640
S        -10.49020       -3.19568        1.10349
C        -12.74893       -4.22291       -0.05223
C        -12.81682       -5.33900        0.87741
C        -12.77261       -6.63254        0.52476
C        -12.66026       -7.72960        1.45722
C        -12.28873       -8.88203        0.87885
C        -12.09334       -8.77334       -0.55810
S        -12.68544       -7.20812       -1.11922
C        -11.46094       -9.65503       -1.35562
C        -10.80639      -10.88216       -0.94069
C        -10.04738      -11.44127       -1.89563
C        -10.06104      -10.71245       -3.14426
S        -11.19480       -9.38869       -3.07715
C         -9.30091      -11.00378       -4.21085
C         -9.25079      -10.25654       -5.43584
C         -9.52720      -10.65166       -6.68146
C         -9.35061       -9.53936       -7.55118
C         -8.91961       -8.38623       -6.74994
O         -8.66135       -7.26351       -7.13158
N         -8.88005       -8.92234       -5.46300
C         -9.65571       -9.97371       -8.75882
O        -10.03341      -11.33124       -8.80794
C         -9.96605      -11.78616       -7.49167
O        -10.21818      -12.91303       -7.10178
H          5.02177        1.40563       -3.28721
H          5.04258       -1.03632       -3.33494
H          5.20533       -2.13702        2.70093
H          3.83893       -4.10831        3.71760
H          1.46186       -4.95221        3.90805
H         -0.86939       -5.27294        3.83375
H         -3.37373       -5.07136        3.51462
H         -5.11162       -3.50253        2.47396
H         -3.94590       -1.24564        0.68567
H         -5.67638        0.17897       -0.54767
H         -8.14757        0.11780       -1.11255
H        -10.28704       -0.72304       -1.61768
H        -12.39958       -2.09713       -1.83190
H        -13.48699       -4.22760       -0.85130
H        -12.79073       -5.07600        1.93313
H        -12.80389       -7.60701        2.52192
H        -12.11124       -9.79164        1.43446
H        -10.87961      -11.28175        0.06093
H         -9.45211      -12.33192       -1.74634
H         -8.64034      -11.86763       -4.17264
H         -8.64745       -8.37243       -4.64637
H         -9.66690       -9.45533       -9.70138
