75

C          7.01424        2.49051        3.62574
S          8.43762        2.93666        4.46922
C          8.34213        4.54165        3.88695
C          7.26053        4.72417        3.05250
C          6.49251        3.53326        2.89217
N          5.37273        3.40729        2.13234
C          5.02275        4.16726        1.03685
C          3.93613        4.03085        0.26439
C          3.76535        4.85488       -0.87830
O          4.38463        6.09297       -1.05554
C          3.02904        4.65688       -2.01430
C          2.16986        3.70436       -2.64523
O          1.80529        2.62577       -2.21503
N          1.85864        4.28492       -3.85940
C          2.44678        5.51960       -4.06207
O          2.34943        6.24243       -5.03692
C          3.19827        5.74494       -2.86964
C          4.03665        6.65488       -2.28446
C          4.50863        7.90487       -2.76155
C          5.29906        8.67613       -2.00077
C          5.77085        9.92061       -2.48941
O          5.91842       10.22828       -3.84403
C          6.17695       11.03967       -1.81640
C          6.32741       11.57301       -0.49738
O          6.08227       11.02830        0.56301
N          6.80600       12.85029       -0.70300
C          6.96294       13.18753       -2.02991
O          7.33998       14.24932       -2.49746
C          6.56130       12.01121       -2.73694
C          6.42775       11.51625       -4.00449
C          6.73241       12.12874       -5.24577
C          6.52039       11.50022       -6.41054
C          6.83516       12.12215       -7.64804
O          6.10709       11.87834       -8.81554
C          7.81260       13.01321       -8.01010
C          8.93074       13.74109       -7.49373
O          9.38464       13.72849       -6.36401
N          9.39334       14.46634       -8.57409
C          8.68369       14.25570       -9.73783
O          8.87428       14.75515      -10.83109
C          7.67396       13.31723       -9.36318
C          6.61066       12.62747       -9.87826
C          6.09619       12.62767      -11.19880
C          4.84781       12.21987      -11.47021
C          4.37064       12.25598      -12.80812
O          5.15040       12.63353      -13.90368
C          3.14348       11.95190      -13.33266
C          1.84205       11.48953      -12.96319
O          1.43441       11.20742      -11.85154
N          1.15248       11.43180      -14.15923
C          1.89318       11.81907      -15.25831
O          1.54086       11.86008      -16.42271
C          3.17067       12.15327      -14.71354
C          4.41660       12.57424      -15.08619
C          4.93272       12.89508      -16.36649
C          6.24695       12.82920      -16.61021
H          6.65498        1.47373        3.69194
H          9.07864        5.27564        4.18339
H          7.02832        5.67964        2.59991
H          4.76626        2.60291        2.27900
H          5.77005        4.91659        0.77987
H          3.18920        3.27295        0.47790
H          1.26794        3.84356       -4.54306
H          4.20069        8.22380       -3.75517
H          5.58565        8.37676       -0.99539
H          6.99909       13.49234        0.04604
H          7.14319       13.13431       -5.20996
H          6.07327       10.51004       -6.44766
H         10.18151       15.08901       -8.51720
H          6.74586       12.99940      -11.98885
H          4.17869       11.87576      -10.68491
H          0.19752       11.12468      -14.22593
H          4.24152       13.17525      -17.15681
H          6.96028       12.52487      -15.84908
H          6.63916       13.06427      -17.59403
