99

C         -0.48406       23.49746        1.96884
S         -0.31907       23.39532        3.67377
C          0.85858       22.16496        3.54086
C          1.12938       21.84945        2.23351
C          0.36421       22.62732        1.31515
N          0.42568       22.50572       -0.03490
C          1.53046       22.17438       -0.79730
C          2.82642       22.36601       -0.51379
C          3.83356       21.90495       -1.39341
O          4.40795       20.64480       -1.29805
C          4.47456       22.52170       -2.43438
C          4.50472       23.74367       -3.16526
O          3.81500       24.73642       -3.00129
N          5.49665       23.55098       -4.10497
C          6.11688       22.31464       -4.03478
O          7.01674       21.89146       -4.71935
C          5.44359       21.65996       -2.95008
C          5.41467       20.48665       -2.25317
C          6.18730       19.31181       -2.39367
C          5.65177       18.13405       -2.04624
C          6.36661       16.93962       -2.26534
S          6.13488       16.15937       -3.74619
C          7.22047       14.89852       -3.34967
C          7.67794       15.00891       -2.03966
C          7.21970       16.23666       -1.43545
C          7.61243       16.64558       -0.04743
C          8.83327       15.88528        0.48613
C         10.13173       16.47717       -0.04527
F         10.22572       16.45507       -1.38745
F         10.26623       17.76282        0.35304
F         11.19397       15.79602        0.44553
C          8.69713       14.38023        0.19539
C          8.59441       14.05720       -1.30537
C          7.47782       13.88613       -4.30399
C          7.40448       14.08004       -5.63513
C          7.63349       13.05409       -6.58883
S          7.59774       13.44588       -8.26142
C          7.93415       11.83161       -8.78135
C          8.07309       11.00085       -7.67002
C          7.87269       11.70248       -6.42971
C          7.90589       10.98440       -5.12075
C          7.52736        9.54182       -5.24286
C          8.39703        8.84283       -6.26382
O          8.01993        7.46531       -6.38559
C          8.20360        6.71473       -5.18741
C          8.31244        9.51362       -7.65095
C          7.99922       11.52738      -10.21422
S          6.96978       12.37044      -11.31861
C          7.54657       11.52996      -12.68636
C          8.50444       10.59852      -12.33048
C          8.80062       10.62480      -10.91286
C          9.85868        9.72105      -10.35045
C         10.81360        9.11936      -11.37346
C         11.95635       10.06641      -11.72488
F         11.89999       11.23633      -11.05749
F         13.13781        9.48532      -11.39589
F         12.01613       10.34496      -13.04247
C         10.03167        8.59894      -12.58804
C          9.22071        9.69149      -13.29300
C          7.05882       11.88702      -13.97287
C          5.96489       11.31434      -14.48612
H         -1.15956       24.22444        1.54314
H          1.29423       21.71988        4.43245
H          1.83604       21.08087        1.94140
H         -0.44087       22.54664       -0.56974
H          1.23913       21.72826       -1.74516
H          3.13681       22.86029        0.40051
H          5.75891       24.25582       -4.77281
H          7.18634       19.38421       -2.81611
H          4.63258       18.04782       -1.68144
H          6.75409       16.43798        0.60628
H          7.78847       17.72724       -0.00483
H          8.85318       16.01520        1.57640
H          7.79750       14.00791        0.70437
H          9.54102       13.83170        0.63295
H          8.23907       13.02459       -1.41122
H          9.59864       14.09742       -1.74461
H          7.74040       12.95673       -3.85083
H          7.16175       15.06714       -6.02741
H          7.13712       11.35893       -4.44693
H          8.89532       11.11241       -4.65827
H          6.46412        9.46389       -5.51282
H          7.62843        9.08869       -4.25405
H          9.44336        8.88686       -5.93457
H          7.93878        5.67548       -5.38985
H          7.54106        7.06086       -4.38848
H          9.24488        6.75822       -4.85341
H          7.56232        9.03023       -8.28574
H          9.29608        9.32883       -8.06811
H          9.33237        8.86376       -9.91566
H         10.43310       10.22992       -9.56689
H         11.27278        8.24430      -10.89008
H          9.34151        7.81539      -12.24453
H         10.71199        8.11980      -13.30080
H          8.49713        9.20984      -13.96069
H          9.87795       10.30042      -13.92277
H          7.59209       12.65554      -14.52624
H          5.40296       10.55363      -13.95153
H          5.59560       11.61787      -15.46022
