102

C          4.70195       22.12546      -12.91833
S          5.85269       21.23845      -13.82873
C          6.11329       20.14888      -12.53923
C          5.33918       20.45727      -11.44240
C          4.51436       21.60310      -11.65730
N          3.64237       22.14077      -10.76082
C          3.39356       21.70007       -9.48181
C          2.53811       22.18925       -8.57384
C          2.44993       21.55778       -7.30636
O          3.21096       20.43923       -6.95545
C          1.67875       21.82148       -6.20582
C          0.66088       22.69644       -5.71431
O          0.13227       23.62261       -6.29235
N          0.40864       22.24112       -4.43014
C          1.17264       21.15629       -4.05913
O          1.15039       20.54326       -3.01041
C          1.98503       20.90667       -5.20602
C          2.93111       20.04287       -5.66184
C          3.51667       18.94076       -5.00326
C          3.90634       17.87195       -5.70558
C          4.42169       16.71550       -5.06621
S          5.61148       15.86555       -5.93997
C          5.80625       14.66286       -4.74098
C          4.93292       14.88653       -3.68672
C          4.13878       16.08539       -3.86455
C          3.11603       16.50442       -2.83193
C          3.35999       15.86357       -1.46012
C          4.48304       16.58706       -0.72357
F          5.56807       16.82285       -1.48555
F          4.04586       17.78387       -0.26626
F          4.89164       15.87480        0.35098
C          3.59354       14.35697       -1.62102
C          4.83007       14.02999       -2.45327
C          6.74864       13.60290       -4.89240
C          7.58437       13.52556       -5.93710
C          8.48404       12.45007       -6.12912
S          8.83030       12.03701       -7.74745
C          9.79278       10.69398       -7.30942
C          9.95590       10.63681       -5.93201
C          9.19459       11.65397       -5.24837
C          9.19842       11.77542       -3.75123
C         10.41040       11.10270       -3.10234
C         11.66594       11.96961       -3.18582
F         11.45180       13.15989       -3.78180
F         12.11355       12.23518       -1.93256
F         12.67950       11.36038       -3.83557
C         10.59268        9.68339       -3.67313
C         10.81707        9.65062       -5.19205
C         10.35732        9.85579       -8.31382
C          9.72657        9.60840       -9.47413
C         10.27235        8.77525      -10.49122
S          9.17481        7.90399      -11.48381
C         10.41791        7.16104      -12.40452
C         11.66525        7.58289      -11.96355
C         11.58149        8.52932      -10.87569
C         12.81559        9.12699      -10.25231
C         14.06079        9.00181      -11.13327
C         14.11206       10.08388      -12.21143
F         13.05917       10.92538      -12.17159
F         15.22385       10.84179      -12.03309
F         14.18830        9.57902      -13.46009
C         14.18009        7.56646      -11.67164
C         12.98570        7.14104      -12.52578
C         10.02677        6.24251      -13.42448
C         10.73073        6.05233      -14.54707
H          4.22572       22.98597      -13.36481
H          6.81705       19.33359      -12.63647
H          5.37764       19.86992      -10.53476
H          3.08898       22.95140      -11.02953
H          3.99471       20.83532       -9.21183
H          1.91615       23.05161       -8.78143
H         -0.28212       22.65378       -3.83085
H          3.59598       19.00516       -3.93184
H          3.85662       17.88235       -6.78977
H          2.12778       16.20788       -3.20654
H          3.08999       17.58396       -2.69147
H          2.44910       15.99737       -0.86250
H          2.70978       13.91994       -2.10641
H          3.67173       13.87753       -0.63854
H          4.79088       12.96961       -2.72925
H          5.73144       14.17386       -1.84551
H          6.75017       12.83459       -4.12851
H          7.56228       14.26648       -6.73169
H          8.29004       11.28281       -3.37868
H          9.13882       12.82507       -3.44066
H         10.17245       10.99410       -2.03528
H          9.68601        9.10560       -3.44539
H         11.41819        9.17089       -3.16613
H         10.61613        8.63552       -5.55489
H         11.86780        9.86439       -5.41902
H         11.30897        9.39682       -8.07810
H          8.73719       10.02112       -9.66292
H         13.00592        8.58150       -9.31822
H         12.65285       10.17650       -9.98068
H         14.92690        9.16893      -10.47893
H         14.26016        6.87990      -10.81775
H         15.10213        7.44868      -12.25180
H         12.99810        6.04949      -12.62759
H         13.09791        7.56538      -13.52791
H          9.10133        5.68580      -13.29041
H         11.63275        6.60180      -14.78398
H         10.39809        5.33523      -15.28978
