103

C         -9.14705        0.60231       12.05713
S         -9.46500       -0.56764       10.84619
C         -9.90980        0.63758        9.71775
C         -9.81258        1.90312       10.25158
C         -9.31514        1.88716       11.58963
N         -9.05769        2.98674       12.33992
C         -8.53401        4.18837       11.90880
C         -7.83872        4.43625       10.78148
C         -7.37954        5.71863       10.36699
S         -7.51344        7.13183       11.36442
C         -6.93603        8.16738       10.14136
C         -6.63894        7.46999        9.00407
C         -6.79829        6.05773        9.14627
N         -6.50080        5.15336        8.16975
C         -6.02996        5.74572        7.02140
C         -6.00157        7.19097        6.85472
N         -5.76469        7.87925        5.66884
C         -6.07198        7.31079        4.38030
N         -6.25234        8.08483        7.85955
N         -5.62121        4.87238        5.94360
C         -6.44926        3.66941        5.89511
C         -4.32817        4.92219        5.41006
C         -3.77268        4.27258        4.36793
C         -2.40988        4.49622        3.93918
S         -1.20694        4.95526        5.09990
C          0.02317        5.04319        3.93456
C         -0.41848        4.66130        2.69798
C         -1.81388        4.32976        2.67543
N         -2.47053        3.95070        1.54042
C         -1.94446        3.23949        0.46712
C         -2.60040        2.84330       -0.63310
C         -2.05365        1.96040       -1.63154
S         -0.37318        1.83424       -1.93442
C         -0.52927        0.49170       -3.01192
C         -1.87394        0.31807       -3.33421
C         -2.73818        1.10433       -2.48624
C         -4.21651        0.89416       -2.52446
C         -4.68853        0.56891       -3.93031
C         -3.96231       -0.62463       -4.57024
O         -4.21813       -0.62929       -5.99049
C         -5.57130       -0.87081       -6.35571
C         -2.42017       -0.63583       -4.37420
C          0.60267       -0.30077       -3.42513
C          1.87385        0.02018       -3.12895
C          3.00440       -0.82860       -3.35302
S          4.56126       -0.05097       -3.47069
C          5.40986       -1.52925       -3.47952
C          4.55103       -2.59206       -3.39900
C          3.17477       -2.20675       -3.41206
N          2.16107       -3.10850       -3.38342
C          2.55491       -4.42606       -3.29551
C          3.97270       -4.76708       -3.14618
N          4.38235       -6.08582       -2.83213
C          5.74986       -6.24536       -2.35307
N          4.98899       -3.86359       -3.27481
N          1.47839       -5.37685       -3.30095
C          1.69678       -6.82342       -3.42724
C          0.15101       -4.92666       -3.30628
C         -0.98627       -5.63478       -3.30589
H         -8.80285        0.28988       13.02911
H        -10.22384        0.36348        8.72022
H        -10.07346        2.79909        9.69892
H         -8.98955        2.88378       13.35368
H         -8.73624        4.96825       12.63742
H         -7.62323        3.61265       10.10438
H         -6.86283        9.23456       10.30696
H         -6.11464        8.82240        5.82310
H         -5.19217        6.80671        3.97786
H         -6.30020        8.11037        3.66987
H         -6.92835        6.62936        4.39814
H         -7.51392        3.91849        5.99678
H         -6.17124        2.95971        6.68268
H         -6.35148        3.16071        4.93107
H         -3.73695        5.67491        5.93933
H         -4.36968        3.57003        3.78694
H          1.01506        5.36300        4.21547
H          0.22332        4.65422        1.82676
H         -3.47886        4.04979        1.50201
H         -0.90929        2.95000        0.62404
H         -3.63878        3.13871       -0.75781
H         -4.75561        1.77961       -2.17445
H         -4.47023        0.07034       -1.84528
H         -4.58458        1.45058       -4.57738
H         -5.76205        0.35849       -3.87807
H         -4.35905       -1.55865       -4.15066
H         -5.66296       -0.72805       -7.43609
H         -6.25927       -0.16817       -5.87841
H         -5.85357       -1.89788       -6.11120
H         -1.92526       -0.42294       -5.33013
H         -2.12036       -1.65595       -4.10045
H          0.39012       -1.23466       -3.93938
H          2.09421        0.96287       -2.63423
H          6.49014       -1.55089       -3.50684
H          3.74397       -6.41972       -2.11326
H          6.49737       -5.65780       -2.89629
H          6.03561       -7.29677       -2.45770
H          5.79529       -5.99546       -1.28777
H          2.68713       -7.16450       -3.71383
H          1.05716       -7.23377       -4.21888
H          1.41089       -7.31372       -2.48687
H          0.04658       -3.84308       -3.31965
H         -1.00515       -6.71714       -3.28910
H         -1.94343       -5.12464       -3.32582
