68

C          6.36641        2.28160       11.38162
S          6.96320        3.34568       10.18136
C          6.79697        2.16168        8.96161
C          6.30199        0.97482        9.46148
C          6.05082        1.04499       10.86379
C          7.12092        2.39582        7.59104
C          7.36116        2.59745        6.43585
C          7.58994        2.84106        5.06071
C          8.61290        3.59493        4.64327
C          8.82384        3.86565        3.26144
S         10.16839        4.83347        2.79283
C          9.78706        4.70925        1.13776
C          8.65361        3.96361        0.92251
C          8.10130        3.47972        2.14293
C         10.57674        5.31480        0.12296
C         11.28242        5.83296       -0.69735
C         12.15477        6.44830       -1.63088
C         11.74892        7.48307       -2.37860
C         12.61597        8.12752       -3.30575
S         12.21110        9.70532       -3.86739
C         13.61663        9.81774       -4.82171
C         14.37256        8.67192       -4.76377
C         13.80054        7.70329       -3.88758
C         13.95847       10.98615       -5.55562
C         14.25001       12.01802       -6.09360
C         14.59267       13.29137       -6.60961
C         14.30264       13.65784       -7.86791
C         14.61289       14.99543       -8.41656
C         13.83559       15.65745       -9.39539
C         14.30139       16.92176       -9.84107
C         15.46611       17.52437       -9.36935
C         16.22571       16.84846       -8.39878
C         15.80076       15.60911       -7.96270
N         17.35383       17.36907       -7.87939
C         17.72230       18.57891       -8.34345
C         16.99141       19.24421       -9.30424
N         15.85542       18.73232       -9.83093
C         12.55195       15.12612       -9.94566
S         12.07288       15.52853      -11.55854
C         10.56322       14.75471      -11.41629
C         10.44952       14.08750      -10.22024
C         11.58200       14.31464       -9.37217
C          9.56489       14.83963      -12.43217
C          8.75291       15.00968      -13.30155
C          7.81732       15.27527      -14.33748
C          7.74086       16.47911      -14.91549
H          6.27576        2.61470       12.40624
H          6.12190        0.09792        8.85161
H          5.65709        0.23077       11.45943
H          6.88210        2.39247        4.36967
H          9.30154        4.02234        5.37072
H          8.23458        3.76436       -0.05623
H          7.20730        2.87057        2.18544
H         13.16515        6.05757       -1.68564
H         10.73589        7.86558       -2.26512
H         15.30058        8.53493       -5.30551
H         14.24967        6.73614       -3.69814
H         15.08595       13.96298       -5.91252
H         13.80971       12.95626       -8.53520
H         13.74042       17.48983      -10.58171
H         16.44251       15.11089       -7.23888
H         18.62615       18.99651       -7.91592
H         17.29908       20.21356       -9.67822
H          9.58392       13.50009       -9.93588
H         11.64506       13.91183       -8.36880
H          7.15845       14.47341      -14.65611
H          8.38805       17.30038      -14.61991
H          7.02225       16.67078      -15.70582
