92

C          0.38502       -1.46494        1.62874
C         -0.38328       -1.12728        2.66941
C         -1.09172       -1.99033        3.58348
C         -1.77897       -1.41576        4.58914
C         -1.90078        0.03882        4.69543
C         -1.21825        0.88352        3.89154
C         -0.30713        0.33133        2.89278
C          0.63090        0.89474        2.07037
C          1.09997       -0.25569        1.24619
C          2.09686       -0.32663        0.35800
C          1.02387        2.31319        2.05537
C          1.18602        3.08995        3.16296
C          1.23743        2.75245        4.57816
C          1.26942        3.74597        5.49045
C          1.19918        5.15051        5.10289
C          1.25509        5.52852        3.81274
C          1.38389        4.50539        2.79218
C          1.54849        4.62213        1.46002
C          1.37003        3.24641        0.93364
C          1.60779        2.94362       -0.35152
N          1.74162        5.72169        0.64491
C          2.30483        6.92982        0.93942
S          3.63581        7.06327        2.04592
C          3.67536        8.73524        1.89650
N          4.59662        9.46920        2.69725
O          5.46833       10.10435        2.09200
O          4.42539        9.43915        3.92283
C          2.82215        9.22544        0.94165
C          2.01859        8.17352        0.37272
C          1.04243        8.44108       -0.65699
C         -0.10277        7.76781       -0.88357
C         -1.07515        8.08587       -1.95891
C         -0.58402        8.47684       -3.21575
C         -1.44681        8.80750       -4.26056
C         -0.91852        9.19393       -5.60991
C         -2.82621        8.76236       -4.04108
C         -3.37084        8.35513       -2.80985
C         -2.48257        7.95402       -1.77106
C         -2.99384        7.30067       -0.50454
C         -4.85103        8.33621       -2.66853
C         -5.68219        9.24164       -3.22353
C         -7.12037        9.24059       -2.99623
C         -7.96827       10.27780       -3.13442
C         -9.40917       10.37472       -2.76446
C        -10.31828        9.37070       -2.70484
C        -11.69881        9.57454       -2.40045
N        -12.82068        9.73046       -2.14940
C         -9.98965        8.00925       -2.98650
N         -9.73298        6.91121       -3.21076
C         -9.71279       11.83147       -2.61281
C         -8.62540       12.56906       -3.07836
C         -7.52924       11.67590       -3.48639
O         -6.49373       12.04969       -4.00001
C         -8.58533       13.96318       -3.10445
C         -9.71156       14.66867       -2.62354
C        -10.79861       13.93331       -2.12814
C        -10.81099       12.51610       -2.10038
S        -12.06495       14.97412       -1.58178
C        -11.19723       16.35675       -2.00699
C         -9.96281       16.08410       -2.53374
Br       -11.86530       18.09160       -1.77616
H          0.55981       -2.45754        1.24800
H         -0.98659       -3.06604        3.50393
H         -2.26369       -2.02356        5.34767
H         -2.58855        0.41907        5.44524
H         -1.36239        1.95459        3.96568
H          2.74575        0.50839        0.13781
H          2.31600       -1.25737       -0.15809
H          1.32122        1.71631        4.88088
H          1.35435        3.52540        6.54765
H          1.08598        5.89100        5.88901
H          1.15020        6.56976        3.53223
H          1.99092        3.68397       -1.04751
H          1.49466        1.95141       -0.75916
H          1.29173        5.61423       -0.25949
H          2.75353       10.27618        0.68252
H          1.26188        9.30566       -1.28391
H         -0.39139        6.95525       -0.22569
H          0.48873        8.50468       -3.39760
H          0.17538        9.23695       -5.61600
H         -1.29447       10.18159       -5.89481
H         -1.23099        8.45880       -6.35876
H         -3.48457        9.03319       -4.86513
H         -4.04320        7.51261       -0.29485
H         -2.44483        7.64300        0.37793
H         -2.87591        6.21359       -0.59519
H         -5.25893        7.56150       -2.02640
H         -5.27967       10.03529       -3.84885
H         -7.48182        8.28610       -2.62426
H         -7.70830       14.48509       -3.47880
H        -11.67663       12.02342       -1.67493
H         -9.26300       16.84675       -2.85242
