74

C          8.18744       -2.75637        2.61187
N          7.06755       -2.55645        1.84187
C          6.77948       -3.34908        0.64713
C          7.88937       -3.29329       -0.39478
C          6.27259       -1.60054        2.43631
C          6.94042       -1.15917        3.56885
C          8.14337       -1.88620        3.67898
C          4.96134       -1.30174        1.97656
C          4.65618       -0.34184        1.06916
O          3.31909       -0.06711        0.71534
C          2.37812       -0.78104        1.36936
C          2.70727       -1.78166        2.30442
C          1.61159       -2.40600        2.83458
S          0.15907       -1.73402        2.20060
C          1.02584       -0.61851        1.21395
O          3.98771       -2.07376        2.62097
C          5.56644        0.50886        0.33367
C          6.38810        1.40902        0.89617
C          7.19609        2.26706        0.09662
N          7.65247        3.51003        0.55437
C          7.52703        4.00679        1.92292
C          6.93358        5.39279        2.11311
C          8.33976        4.13091       -0.48316
C          8.40541        3.25268       -1.54567
C          7.67897        2.10304       -1.19190
C          8.78277        5.47689       -0.43783
C          9.97688        5.87813        0.06414
O         10.37241        7.23105        0.02130
C          9.46997        8.08904       -0.50580
C          8.23665        7.65462       -1.03691
C          7.44487        8.67623       -1.49190
S          8.22685       10.19271       -1.26517
C          9.61802        9.45287       -0.57173
O          7.88564        6.35076       -1.06114
C         10.87606        5.03042        0.82901
C         12.20984        5.13871        0.89073
C         12.99787        4.35395        1.78001
N         12.76095        4.25033        3.14459
C         11.67164        4.79543        3.94362
C         12.11122        5.76174        5.03277
C         13.74457        3.46362        3.71146
C         14.62689        3.08560        2.72992
C         14.16008        3.64351        1.52028
H          8.92910       -3.49840        2.34951
H          5.84645       -3.00027        0.20541
H          6.62906       -4.37983        0.98666
H          8.09880       -2.25566       -0.69424
H          7.59914       -3.85507       -1.28538
H          8.81766       -3.72426       -0.01815
H          6.56432       -0.42347        4.26835
H          8.88043       -1.81445        4.46805
H          1.58238       -3.21182        3.55951
H          0.50056        0.08309        0.58142
H          5.47055        0.43970       -0.74717
H          6.40765        1.47828        1.97818
H          8.51876        3.94360        2.37905
H          6.89902        3.32344        2.49367
H          7.62340        6.18468        1.81431
H          6.72347        5.55466        3.17620
H          6.00091        5.50942        1.55483
H          8.88722        3.44868       -2.49440
H          7.51657        1.24015       -1.82310
H          6.45635        8.61853       -1.92763
H         10.45312       10.05285       -0.24146
H         10.38971        4.28190        1.44162
H         12.73457        5.78868        0.19364
H         11.15077        3.93644        4.38370
H         10.95970        5.31661        3.30680
H         12.79373        5.29149        5.74691
H         11.23575        6.11241        5.59017
H         12.61327        6.63402        4.60307
H         13.74089        3.24781        4.77206
H         15.51021        2.47683        2.87221
H         14.62478        3.53798        0.54833
