81

C          2.94665        0.12261       -4.33982
N          3.62330        1.22842       -3.86299
C          5.07909        1.28442       -3.90202
C          5.76251        0.66250       -2.68889
C          2.70668        2.20361       -3.48794
C          1.44946        1.64778       -3.70582
C          1.60001        0.36759       -4.27396
C          2.96318        3.49897       -2.88055
S          4.25624        3.68746       -1.77362
C          3.76982        5.24635       -1.24530
C          2.49679        5.49817       -1.72607
C          2.20894        4.66779       -2.89811
C          1.16370        4.99083       -3.79076
C          1.03072        4.42471       -5.09169
N          0.90484        4.03240       -6.17793
C          0.35619        6.07564       -3.37100
C          0.55874        6.78207       -2.15030
C          1.65548        6.54507       -1.29586
C          1.78512        7.18186       -0.02080
N          1.85389        7.67595        1.02228
C          4.67607        6.08290       -0.52331
C          5.61030        5.59255        0.30599
C          6.59892        6.40000        0.94418
S          7.20834        7.83005        0.20291
C          8.41454        8.06635        1.40137
C          8.26679        7.15197        2.42965
C          7.26924        6.17514        2.13751
N          7.02155        5.03556        2.96931
O          7.23959        3.92722        2.46784
O          6.64478        5.26611        4.12114
C          9.10157        7.10573        3.59276
N          9.78239        7.08474        4.53297
C          9.38735        9.06817        1.14870
C          9.99969        9.75114        2.12394
C         11.09728       10.65367        1.87446
C         11.08596       11.73002        1.04587
O         12.23643       12.51053        0.83706
C         13.33237       12.12907        1.54342
C         13.32751       11.00889        2.39848
C         14.53295       10.76392        3.00087
S         15.68071       11.96165        2.55063
C         14.54355       12.77177        1.53563
O         12.22711       10.25926        2.59125
C          9.93183       12.14423        0.25939
C          8.72328       12.41232        0.79865
C          7.56257       12.59099       -0.01438
O          7.63731       12.90603       -1.35714
C          6.38364       12.96496       -1.86075
C          5.46192       12.68387       -0.88510
O          4.11558       12.61293       -1.03550
C          3.58517       13.54099       -1.97350
C          6.20283       12.43927        0.30781
N          5.71037       12.12281        1.54528
C          4.47150       11.61487        1.86176
C          3.98807       11.35721        3.08174
H          3.48404       -0.74633       -4.69751
H          5.39187        2.31861       -4.06669
H          5.38645        0.72597       -4.79529
H          5.66281        1.27796       -1.79244
H          6.83455        0.54854       -2.88175
H          5.35217       -0.32369       -2.44960
H          0.50012        2.11820       -3.48446
H          0.81197       -0.30460       -4.58743
H         -0.47429        6.38852       -4.00791
H         -0.16604        7.55235       -1.87881
H          4.61281        7.15103       -0.72504
H          5.64752        4.52452        0.51077
H          9.66621        9.24772        0.10951
H          9.76713        9.62123        3.17683
H         14.79158        9.96141        3.67892
H         14.83260       13.66464        1.00167
H         10.07597       12.12670       -0.81867
H          8.59688       12.40992        1.87309
H          6.32007       13.20243       -2.91170
H          2.50082       13.39599       -2.01120
H          3.97312       13.36900       -2.98205
H          3.77826       14.57006       -1.65181
H          6.29973       12.26351        2.36012
H          3.84424       11.38223        1.00542
H          4.55077       11.55091        3.98585
H          2.99267       10.93707        3.19184
