73

C          7.73490        0.31710       -2.06140
C          7.06356        0.73905       -0.94149
C          7.16836        0.07339        0.28014
C          6.39824        0.69257        1.28527
C          5.59469        1.85786        1.07356
C          5.46987        2.52245       -0.17174
C          6.25886        1.91821       -1.17218
C          6.36441        2.34543       -2.47792
S          7.41631        1.34284       -3.40102
C          4.67488        3.72287       -0.40818
C          3.55258        4.02464        0.26364
C          2.80872        5.19611       -0.02979
O          2.05332        5.86789        0.93463
C          2.62723        5.90321       -1.18964
C          2.99960        5.92526       -2.57483
O          3.73354        5.16278       -3.17286
N          2.34351        7.02650       -3.07744
C          1.58260        7.70914       -2.15378
O          0.90288        8.70446       -2.32653
C          1.77303        6.97264       -0.94045
C          1.42409        6.98218        0.38224
C          0.60807        7.89588        1.09686
C          0.76655        8.07651        2.41614
C         -0.04665        9.01376        3.10406
O         -0.65029       10.11834        2.49961
C         -0.41486        9.07691        4.41984
C         -0.25529        8.39971        5.66697
O          0.40389        7.40382        5.90237
N         -1.02252        9.13769        6.55010
C         -1.65107       10.22386        5.98184
O         -2.37853       11.03774        6.52042
C         -1.25541       10.17336        4.60905
C         -1.39493       10.84440        3.42648
C         -2.11871       12.02483        3.13056
C         -1.73751       12.82667        2.12564
C         -2.45267       14.02208        1.85767
O         -3.57891       14.43718        2.57015
C         -2.24339       14.99356        0.91698
C         -1.36937       15.35638       -0.15490
O         -0.38937       14.75827       -0.55777
N         -1.88838       16.54813       -0.62340
C         -3.01076       16.98046        0.05403
O         -3.66620       17.98585       -0.14717
C         -3.22726       15.97313        1.04421
C         -4.06404       15.64463        2.07465
C         -5.19141       16.33448        2.58697
C         -5.89274       15.85095        3.62478
C         -7.04089       16.55830        4.18067
N         -7.44368       17.75263        3.66988
N         -8.54577       18.51120        4.17881
C         -9.29883       18.11107        5.22786
C         -8.94897       16.88118        5.81180
C         -7.78990       16.07287        5.28002
N         -7.60599       14.92586        5.96315
S         -8.76634       14.87792        7.14739
N         -9.56407       16.30355        6.85788
H          8.39579       -0.53076       -2.17707
H          7.76773       -0.80764        0.46225
H          6.41564        0.26415        2.28791
H          5.06057        2.25145        1.93836
H          5.89138        3.18683       -2.96631
H          5.05053        4.38583       -1.18155
H          3.17483        3.39166        1.06023
H          2.41967        7.31323       -4.04068
H         -0.13426        8.46036        0.53694
H          1.50951        7.51960        2.98124
H         -1.10726        8.90661        7.52866
H         -2.96825       12.27424        3.76254
H         -0.86929       12.59261        1.51308
H         -1.48427       17.05799       -1.38980
H         -5.46389       17.27621        2.11467
H         -5.62161       14.91142        4.10011
H        -10.10916       18.74585        5.55172
