90

C          3.85252       -0.40259       -2.38951
O          4.92717       -0.48524       -1.55999
C          5.28136        0.78895       -1.25126
C          4.44641        1.68657       -1.87626
C          3.51790        0.91289       -2.61304
S          2.19840        1.46467       -3.61678
C          2.27432        3.23841       -3.44470
C          1.59733        3.87272       -2.39236
C          1.73134        5.24899       -2.25228
C          2.48618        5.99517       -3.18172
C          3.14058        5.37635       -4.23385
C          3.03841        3.98978       -4.35806
C          2.44372        7.39002       -2.81846
C          1.69744        7.54152       -1.63362
C          1.15392        6.18314       -1.16428
C          1.67741        5.80901        0.24963
C          3.19876        5.69564        0.38555
C         -0.40011        6.11038       -1.25214
C         -1.19830        7.09389       -0.40141
C          1.55794        8.79331       -1.04804
C          2.10476        9.91542       -1.68983
C          2.83470        9.74830       -2.88167
C          3.01291        8.48390       -3.44717
C          1.91552       11.22819       -1.06183
C          1.83196       12.39156       -1.72412
C          1.58593       13.65905       -1.06994
C          0.51021       13.98443       -0.33674
C          0.28708       15.29846        0.21344
C         -0.95088       15.46654        0.69666
C         -1.79372       14.28517        0.58713
S         -0.84336       12.92866        0.00164
C         -3.10534       14.22145        0.88304
C         -3.94233       15.34984        1.24623
C         -5.15032       15.00201        1.71009
C         -5.32448       13.57130        1.80954
S         -4.07270       12.74326        0.90059
C         -6.18153       12.89872        2.59043
C         -7.05057       13.52027        3.61040
C         -8.34350       13.99157        3.38205
C         -9.14369       14.60638        4.42439
N        -10.40377       14.97972        4.12337
C        -10.88760       14.76043        2.87077
C        -10.12001       14.19281        1.89303
N         -8.83657       13.82168        2.14068
C        -10.59207       13.93710        0.56543
N        -10.99868       13.73453       -0.50957
C        -12.24615       15.15716        2.63877
N        -13.34318       15.47635        2.42867
C         -8.65941       14.80071        5.74298
C         -7.34241       14.30190        6.00888
C         -6.54311       13.62117        4.92890
N         -5.35921       13.15653        5.36247
S         -5.22295       13.57331        6.95420
N         -6.65183       14.37022        7.16237
C         -9.42439       15.40794        6.84889
O         -9.12712       14.87935        8.08607
C         -9.86110       15.52059        9.02359
C        -10.69028       16.43279        8.42819
C        -10.40630       16.37460        7.03812
S        -11.21546       17.44453        5.91949
H          3.45062       -1.34836       -2.72480
H          6.12991        0.89269       -0.58959
H          4.51413        2.76214       -1.79738
H          0.99442        3.29929       -1.69526
H          3.73030        5.94748       -4.94301
H          3.56754        3.49502       -5.16987
H          1.24439        4.84955        0.56108
H          1.33791        6.55248        0.98159
H          3.60614        4.90537       -0.25217
H          3.46365        5.44547        1.41864
H          3.70089        6.63516        0.13651
H         -0.72656        5.09921       -0.97288
H         -0.71885        6.24901       -2.29458
H         -0.93901        7.02910        0.65831
H         -2.26847        6.87727       -0.49547
H         -1.06417        8.12448       -0.73970
H          1.01287        8.90721       -0.11525
H          3.28323       10.60331       -3.38029
H          3.58340        8.37335       -4.36257
H          1.78554       11.21453        0.01839
H          1.94302       12.44237       -2.80447
H          2.33679       14.41868       -1.27861
H          1.04553       16.06927        0.21225
H         -1.28367       16.39106        1.14547
H         -3.62478       16.37560        1.12595
H         -5.91031       15.71446        1.99136
H         -6.15480       11.81206        2.61586
H         -9.68482       15.22031       10.04742
H        -11.39613       17.07594        8.93670
H        -10.35755       17.36971        4.89818
