82

C         -1.31242       -0.83759       -4.22299
S         -2.49850       -2.02184       -4.11177
C         -1.55692       -3.14317       -3.17101
C         -0.23564       -2.63949       -3.13298
C         -0.11260       -1.27194       -3.74131
C          1.07973       -0.50967       -3.76875
C          1.36065        0.83047       -4.34499
O          2.40021        1.42083       -4.08729
O          0.45040        1.37058       -5.17349
C          2.15160       -1.15257       -3.10431
C          2.08106       -2.44442       -2.53248
C          0.92087       -3.23995       -2.55737
O          1.03234       -4.52671       -2.11857
C         -2.27481       -4.32283       -2.58301
S         -1.49283       -5.32948       -1.41754
C         -2.75994       -6.45756       -1.18926
C         -3.88268       -5.96956       -1.84776
C         -3.60043       -4.78188       -2.68360
C         -4.63744       -4.18807       -3.44405
C         -5.90243       -4.77954       -3.31092
F         -6.92560       -4.23033       -3.98265
C         -6.15889       -5.89182       -2.49241
F         -7.41144       -6.37237       -2.42580
C         -5.17509       -6.52540       -1.72770
C         -2.46353       -7.58895       -0.35741
C         -3.29664       -8.62131       -0.19283
C         -3.12941       -9.71170        0.73672
C         -4.11208      -10.57257        1.08466
C         -5.52381      -10.55679        0.52530
C         -3.93389      -11.67770        2.10345
N         -2.99259      -11.32639        3.15810
C         -3.07519      -11.76585        4.46319
C         -4.15917      -12.22768        5.09702
C         -4.19848      -12.75436        6.44162
C         -4.05534      -12.09817        7.59563
C         -4.28226      -12.72972        8.87294
C         -4.29920      -11.86643        9.89600
C         -4.08975      -10.47964        9.51106
S         -3.74867      -10.39283        7.77914
C         -4.20663       -9.41595       10.31678
C         -4.56558       -9.45554       11.72532
C         -4.83995       -8.25625       12.25291
C         -4.69743       -7.17253       11.31097
S         -4.03252       -7.74097        9.79710
C         -5.08219       -5.91204       11.55359
C         -4.93423       -4.81472       10.62556
C         -5.96952       -4.10047       10.16847
C         -5.88944       -2.99812        9.22466
C         -4.77021       -2.49751        8.68388
C         -4.72036       -1.39248        7.75014
C         -5.49738       -0.30335        7.80908
H         -1.61469        0.10084       -4.65784
H         -0.09883        0.73222       -5.65530
H          3.11078       -0.63266       -3.03459
H          2.99178       -2.83375       -2.07764
H          1.82006       -4.61356       -1.55696
H         -4.58266       -3.33491       -4.09481
H         -5.48726       -7.33959       -1.09659
H         -1.51293       -7.59145        0.17722
H         -4.19562       -8.67679       -0.77424
H         -2.13991       -9.81151        1.17903
H         -5.76131       -9.69648       -0.10164
H         -6.25910      -10.54241        1.33768
H         -5.69304      -11.45603       -0.07677
H         -3.60067      -12.58977        1.59632
H         -4.91336      -11.90090        2.53870
H         -2.63921      -10.37318        3.12136
H         -2.11486      -11.70220        4.96897
H         -5.12114      -12.24254        4.60018
H         -4.46903      -13.80468        6.46374
H         -4.46659      -13.78536        8.97647
H         -4.49770      -12.17471       10.91247
H         -4.64104      -10.37114       12.29272
H         -5.15258       -8.10158       13.27629
H         -5.54701       -5.66129       12.50449
H         -3.91639       -4.62250       10.29947
H         -6.98118       -4.35336       10.48179
H         -6.85336       -2.55989        8.97082
H         -3.80188       -2.94374        8.88760
H         -3.93728       -1.44689        6.99751
H         -6.26966       -0.18661        8.56243
H         -5.37280        0.50126        7.09300
