105

N         -5.37367      -12.40768        4.42890
C         -4.35503      -13.46491        4.37415
C         -4.28954      -14.23423        5.69719
C         -3.06040      -15.13832        5.69678
N         -2.98033      -15.90916        6.94926
S         -1.74518      -15.41734        7.93825
N         -1.13465      -14.28368        6.90751
C         -1.74251      -14.31997        5.57005
C         -1.94358      -12.88906        5.05959
C         -2.99097      -12.83132        3.94273
N         -3.25454      -11.43920        3.54144
S         -4.84158      -10.98992        3.77818
C         -2.39187      -10.63486        2.82122
C         -2.53140       -9.34815        2.46179
C         -1.52688       -8.69315        1.71489
O         -0.62020       -9.35006        0.89720
C         -1.22141       -7.36206        1.60317
C         -1.60559       -6.08002        2.08677
O         -2.49877       -5.80844        2.87610
N         -0.73738       -5.20707        1.46537
C          0.15736       -5.82342        0.60940
O          1.01253       -5.29975       -0.08009
C         -0.15468       -7.21128        0.71897
C          0.22495       -8.44289        0.26590
C          1.24469       -8.82894       -0.63896
C          1.43199      -10.12535       -0.92750
C          2.41164      -10.63131       -1.84629
C          3.62249       -9.98073       -1.97150
S          4.57549      -10.62072       -3.20958
C          3.39095      -11.78925       -3.59798
C          2.30593      -11.79781       -2.72731
C          1.35865      -12.87565       -2.88640
C          0.23396      -13.06404       -1.87110
C         -1.03898      -12.29797       -2.20156
C          1.51726      -13.83466       -3.98722
C          0.64379      -15.08692       -4.03737
C         -0.62913      -14.99799       -4.86865
C          2.57343      -13.66016       -4.96150
C          2.95389      -14.33661       -6.21155
C          4.11736      -13.83212       -6.75455
S          4.78527      -12.59266       -5.81839
C          3.50292      -12.66300       -4.69132
C          2.21861      -15.35623       -6.90389
C          2.71282      -16.36157       -7.65050
C          1.86310      -17.36179       -8.28501
C          1.03004      -18.20272       -7.64815
C          0.15117      -19.16375       -8.27206
C         -0.63557      -19.82387       -7.40318
C         -0.43859      -19.43390       -6.01566
S          0.88720      -18.28654       -5.91757
C         -1.12145      -19.83774       -4.92566
C         -2.18790      -20.81778       -4.86287
C         -2.73433      -20.95302       -3.64345
C         -2.16752      -20.06866       -2.64600
S         -0.82471      -19.17823       -3.31041
C         -2.62928      -19.93235       -1.39178
C         -2.08489      -19.01076       -0.46457
S         -0.79145      -19.35859        0.63606
C         -0.79901      -17.75676        1.32657
C         -1.77723      -17.05393        0.71776
C         -2.47197      -17.73312       -0.26023
O         -3.45986      -17.05022       -0.90698
C         -3.34025      -15.83827       -0.25821
N         -4.26537      -14.83953       -0.67571
O         -4.96663      -14.34238        0.21143
O         -4.24761      -14.52705       -1.87245
C         -2.35987      -15.77673        0.73857
H         -5.66464      -12.23647        5.39022
H         -4.65540      -14.16354        3.58137
H         -5.20484      -14.82668        5.82198
H         -4.24882      -13.53945        6.54767
H         -3.13188      -15.84126        4.85638
H         -2.88116      -16.90239        6.74454
H         -0.11748      -14.30769        6.85944
H         -1.06880      -14.86832        4.89750
H         -0.98143      -12.49275        4.70944
H         -2.25451      -12.22728        5.88020
H         -2.61422      -13.38422        3.07259
H         -1.47901      -11.16508        2.55466
H         -3.40644       -8.77662        2.74431
H         -0.76047       -4.21324        1.61498
H          1.84655       -8.04771       -1.09225
H          0.77647      -10.84458       -0.44806
H          3.98737       -9.13205       -1.40923
H         -0.01000      -14.11457       -1.70771
H          0.59936      -12.76799       -0.88398
H         -1.77824      -12.44412       -1.40599
H         -1.48518      -12.64074       -3.13720
H         -0.86219      -11.22343       -2.29993
H          0.39532      -15.45140       -3.03775
H          1.27486      -15.89293       -4.41905
H         -1.40644      -14.41856       -4.37021
H         -1.03611      -16.00291       -5.02843
H         -0.46834      -14.54155       -5.84737
H          4.60563      -14.11748       -7.67567
H          1.14205      -15.29888       -6.82062
H          3.78193      -16.47694       -7.80870
H          1.95068      -17.40636       -9.36846
H          0.12975      -19.31573       -9.34266
H         -1.36265      -20.56234       -7.70954
H         -2.50527      -21.39579       -5.71945
H         -3.53600      -21.64352       -3.41820
H         -3.47953      -20.51997       -1.05941
H         -0.09912      -17.47709        2.10195
H         -2.11973      -14.91994        1.34814
