123

N          4.67195        0.46322       -2.77191
C          4.16728        0.89614       -1.45764
C          5.07209        1.96949       -0.83806
C          4.69670        2.16906        0.62919
N          5.54491        3.20025        1.25106
S          6.61100        2.58640        2.36224
N          6.09942        1.02293        2.25516
C          4.87864        0.86397        1.45476
C          4.99845       -0.39217        0.59510
C          3.98357       -0.36617       -0.55088
N          4.13010       -1.54812       -1.40652
S          4.57820       -1.17673       -2.96614
C          3.88943       -2.85768       -1.06130
C          3.46870       -3.36251        0.10793
C          3.25460       -4.79603        0.33403
C          4.01223       -5.76720       -0.33967
C          3.74073       -7.10650       -0.10914
C          2.74536       -7.48877        0.81486
C          2.00378       -6.54049        1.50040
C          2.26853       -5.19033        1.26185
C          2.67985       -8.92857        0.86399
C          3.61622       -9.46436       -0.04324
C          4.37696       -8.34680       -0.76575
C          5.90112       -8.38472       -0.43848
C          6.66742       -9.64922       -0.83007
C          4.11507       -8.38380       -2.29637
C          2.65536       -8.21491       -2.72667
C          3.74544      -10.83311       -0.20866
C          2.97453      -11.67542        0.58995
C          2.03795      -11.14235        1.49356
C          1.87783       -9.76124        1.62601
C          3.14985      -13.12019        0.49173
C          2.43940      -13.84430       -0.38284
C          2.49640      -15.31021       -0.52856
C          2.30944      -15.92715       -1.78433
C          2.27966      -17.35620       -1.93408
N          2.11941      -17.90771       -3.15808
C          1.99334      -17.08495       -4.23137
C          2.00587      -15.71934       -4.09431
N          2.16153      -15.13800       -2.87549
C          1.84429      -14.82720       -5.20243
N          1.70787      -14.12317       -6.11799
C          1.80895      -17.73780       -5.48581
N          1.63670      -18.26554       -6.51223
C          2.39622      -18.21556       -0.82987
C          2.59709      -17.64163        0.45303
C          2.66355      -16.15347        0.60927
N          2.86594      -15.78629        1.88773
S          2.98324      -17.16381        2.79177
N          2.73412      -18.29988        1.61666
C          2.25634      -19.66958       -0.90886
C          3.25281      -20.55246       -1.04054
C          4.66560      -20.31226       -1.20059
C          5.38059      -21.43501       -1.36928
C          4.57143      -22.64005       -1.41852
S          2.90351      -22.26268       -0.99443
C          4.96150      -23.84267       -1.87806
C          6.25258      -24.17357       -2.45676
C          6.19536      -25.21932       -3.29841
C          4.85800      -25.75760       -3.41789
S          3.86774      -25.20622       -2.08644
C          4.40495      -26.46783       -4.46265
C          3.01517      -26.82220       -4.70244
C          2.00386      -25.95966       -4.90717
C          0.55052      -26.21672       -5.01939
C         -0.04858      -27.32262       -5.52479
C         -1.46014      -27.42397       -5.70459
N         -2.60494      -27.50682       -5.85459
C          0.68356      -28.45267       -5.98662
N          1.27452      -29.38139       -6.36676
C         -0.13326      -24.93516       -4.66447
C          0.82096      -23.91621       -4.64982
C          2.16436      -24.45754       -4.87757
O          3.16498      -23.78550       -5.01933
C          0.53392      -22.57844       -4.40901
C         -0.80920      -22.23629       -4.14617
C         -1.77007      -23.25877       -4.10623
C         -1.45012      -24.61945       -4.34875
S         -3.33396      -22.62340       -3.73315
C         -2.74726      -21.04221       -3.67122
C         -1.39986      -20.95231       -3.89288
Br        -3.83488      -19.55638       -3.32924
H          5.64357        0.74918       -2.88768
H          3.17274        1.33321       -1.62049
H          4.96445        2.90843       -1.39543
H          6.12874        1.67878       -0.91950
H          3.64871        2.49093        0.69078
H          4.96171        3.90968        1.69226
H          6.00414        0.57893        3.16715
H          4.02313        0.77087        2.13775
H          4.86040       -1.26811        1.23739
H          6.01073       -0.49480        0.18015
H          2.96362       -0.35119       -0.14128
H          4.07787       -3.53858       -1.89014
H          3.23938       -2.71495        0.94650
H          4.78981       -5.48668       -1.04345
H          1.22413       -6.83041        2.19591
H          1.68008       -4.44270        1.79124
H          6.05360       -8.23244        0.63864
H          6.39461       -7.53863       -0.93525
H          6.37703      -10.50612       -0.21642
H          7.73892       -9.50883       -0.65446
H          6.53407       -9.90626       -1.88447
H          4.46614       -9.33862       -2.70604
H          4.70180       -7.60031       -2.79321
H          1.98618       -8.90121       -2.19976
H          2.55693       -8.42098       -3.79787
H          2.30518       -7.19176       -2.55823
H          4.44224      -11.24298       -0.92959
H          1.43125      -11.80942        2.10075
H          1.14612       -9.36121        2.31983
H          3.87434      -13.54824        1.17742
H          1.75706      -13.33961       -1.06640
H          1.23215      -20.02507       -0.80940
H          5.10695      -19.32645       -1.21203
H          6.45172      -21.44306       -1.51309
H          7.14560      -23.58863       -2.29460
H          7.02642      -25.56840       -3.89393
H          5.09611      -26.76898       -5.24780
H          2.84735      -27.89306       -4.66218
H          1.32355      -21.83133       -4.41858
H         -2.23702      -25.36151       -4.27503
H         -0.84343      -20.02336       -3.88829
