84

C          3.46186       -2.49160      -11.28099
C          2.36688       -2.86996      -12.04619
F          2.21572       -2.35628      -13.27308
C          1.42525       -3.76595      -11.55702
C          1.56865       -4.28343      -10.26952
C          2.65882       -3.90867       -9.46699
C          3.62871       -3.01070       -9.99057
C          4.73409       -2.62632       -9.21158
C          4.89670       -3.12511       -7.92211
C          3.88672       -3.94362       -7.41263
C          2.79061       -4.37037       -8.15199
C          4.09779       -4.18273       -5.98351
O          3.38499       -4.85240       -5.27232
C          5.36273       -3.44340       -5.60719
C          5.89296       -2.81987       -6.84279
C          7.01559       -2.09250       -7.06560
C          7.54558       -1.88355       -8.37583
N          7.99596       -1.74511       -9.43579
C          7.79045       -1.44453       -6.07140
N          8.44968       -0.80694       -5.36043
C          5.73738       -3.61668       -4.32900
C          6.93171       -3.16688       -3.64058
C          8.12152       -3.88692       -3.54425
N          9.27371       -3.49189       -2.92154
C          9.36418       -2.27608       -2.29451
C          8.20825       -1.44718       -2.27591
C          6.95047       -1.92481       -2.96175
N          5.93622       -1.04396       -2.88803
S          6.51854        0.27228       -2.06409
N          8.06184       -0.22768       -1.72248
C         10.63887       -1.81475       -1.74050
C         11.67007       -2.56942       -1.30243
C         11.64903       -4.07239       -1.22976
C         12.94174       -1.92825       -0.80809
N         13.88062       -1.94120       -1.90510
C         15.09491       -2.56968       -1.94256
C         15.98544       -2.49276       -2.94052
C         17.29277       -3.11225       -2.87728
C         18.37112       -2.72209       -3.57458
C         19.70496       -3.23637       -3.36774
C         20.66246       -2.44716       -3.87717
C         20.14130       -1.25251       -4.51884
S         18.39747       -1.40386       -4.71811
C         20.81748       -0.11738       -4.77399
C         22.20423        0.15358       -4.44845
C         22.47730        1.46569       -4.35640
C         21.32465        2.30269       -4.62086
S         20.04718        1.36055       -5.34583
C         21.22973        3.59834       -4.27991
C         20.03553        4.34084       -4.41958
S         19.69520        5.43385       -5.71732
C         18.11135        5.83774       -5.10706
C         17.92292        5.14628       -3.96299
C         18.97628        4.34286       -3.58298
O         18.83138        3.63727       -2.42268
C         17.55632        4.04283       -2.08623
N         17.03986        3.45861       -0.89319
O         15.93562        2.90589       -0.98456
O         17.70419        3.60976        0.13866
C         16.95541        4.95134       -2.96349
H          4.17146       -1.78461      -11.70266
H          0.58139       -4.04723      -12.17766
H          0.81653       -4.97622       -9.89261
H          5.41433       -1.89810       -9.63949
H          2.04390       -5.01443       -7.69430
H          5.07786       -4.17608       -3.65939
H          8.19934       -4.87274       -4.00278
H         10.74166       -0.73020       -1.72596
H         10.79042       -4.41912       -0.64564
H         12.54452       -4.45967       -0.73047
H         11.62469       -4.51763       -2.22816
H         13.32769       -2.45830        0.07114
H         12.77028       -0.89326       -0.48980
H         13.64016       -1.35868       -2.70189
H         15.31901       -3.13686       -1.04165
H         15.74362       -1.89059       -3.81180
H         17.40615       -3.90290       -2.13812
H         19.90442       -4.12903       -2.78985
H         21.71768       -2.64564       -3.75451
H         22.92715       -0.62008       -4.23266
H         23.43708        1.86342       -4.05962
H         22.06906        4.09516       -3.80417
H         17.46869        6.53224       -5.62915
H         15.97169        5.38704       -2.86350
