99

C         -9.31940        5.93361       -9.63019
C         -9.48180        4.97881      -10.57696
C         -9.09376        5.16575      -11.93914
N         -8.77615        5.31031      -13.04271
C        -10.10535        3.72535      -10.31576
N        -10.60509        2.69800      -10.10618
C         -8.80086        7.31991       -9.85169
C         -9.15589        8.10333       -8.75268
C         -8.82461        9.44522       -8.60374
C         -8.06064       10.04672       -9.62484
C         -7.68732        9.26942      -10.73177
C         -8.04653        7.90238      -10.86422
S         -6.75084       10.19670      -11.85026
C         -6.83287       11.57347      -10.87756
C         -7.54912       11.38490       -9.72670
Br        -6.01683       13.19786      -11.32827
C         -9.85095        7.30375       -7.74096
O        -10.35496        7.76252       -6.73776
C         -9.77205        5.87839       -8.21651
C         -9.92589        4.81809       -7.40265
C        -10.28293        4.85197       -5.99712
C        -10.41080        3.75035       -5.24174
C        -10.76990        3.85351       -3.86622
O        -10.98846        5.04750       -3.20664
C        -11.33745        4.81702       -1.88954
C        -11.32380        3.44234       -1.71628
C        -10.96417        2.85050       -2.93580
O        -10.81955        1.53558       -3.17590
O        -11.57987        2.77442       -0.57482
C        -11.63369        5.85533       -0.96089
C        -11.17883        7.09894       -1.16567
C        -11.41960        8.20558       -0.26213
C        -11.36872        9.46774       -0.70713
N        -11.53571       10.64961       -0.01743
C        -11.56950       11.91353       -0.54294
C        -11.46547       12.19878       -1.89154
S        -11.55475       13.86745       -2.23647
C        -11.75716       14.24001       -0.58386
C        -11.76775       13.11916        0.22380
N        -11.92914       13.16068        1.57891
C        -12.57020       14.13888        2.31358
C        -12.70766       14.19291        3.64641
C        -13.41466       15.26775        4.25473
S        -12.55003       16.68101        4.65057
C        -13.93596       17.52450        5.24306
C        -15.03223       16.66884        5.21550
C        -14.73231       15.37956        4.65853
S        -15.90368       14.05860        4.50679
C        -17.41069       14.87741        4.76450
O        -18.39908       14.85495        4.05959
C        -17.29458       15.52800        6.12301
O        -17.64827       15.06266        7.18930
S        -16.64529       17.10615        5.81302
C        -13.84133       18.88378        5.70311
C        -12.71317       19.61066        5.63180
C        -12.60406       20.95041        6.13442
C        -12.29912       22.08547        5.49126
C        -12.03920       22.54386        4.10688
C        -12.01576       21.85080        2.93973
C        -11.97028       22.48357        1.65989
N        -11.95751       22.97936        0.60891
C        -12.02638       20.43737        2.81374
N        -11.96553       19.30086        2.58329
C        -11.80441       24.03068        4.20254
C        -11.94973       24.43800        5.52792
C        -12.26529       23.29737        6.38493
O        -12.44605       23.35393        7.58497
C        -11.75562       25.74064        5.98183
C        -11.36031       26.71222        5.03770
C        -11.18939       26.31549        3.70538
C        -11.40121       24.98386        3.27226
S        -10.68184       27.63536        2.71536
C        -10.67846       28.69521        4.02684
C        -11.05921       28.10728        5.20389
Br       -10.18958       30.49645        3.87837
H         -9.12063        9.99345       -7.71311
H         -7.69710        7.35825      -11.73399
H         -7.70520       12.15211       -8.97748
H         -9.74054        3.81374       -7.77436
H        -10.45807        5.82034       -5.53535
H        -10.25456        2.75705       -5.64778
H        -11.00361        1.05714       -2.34536
H        -11.73629        3.39925        0.15281
H        -12.24961        5.62716       -0.09854
H        -10.58240        7.31769       -2.05322
H        -11.63355        7.98643        0.77901
H        -11.19248        9.61248       -1.77028
H        -11.68145       10.52260        0.97864
H        -11.34534       11.51414       -2.71745
H        -11.84350       15.27612       -0.29150
H        -11.61775       12.37119        2.13494
H        -13.01794       14.91906        1.69757
H        -12.26007       13.44505        4.29083
H        -14.73494       19.33966        6.12681
H        -11.78284       19.19743        5.25194
H        -12.77614       20.99198        7.21538
H        -11.87804       25.98559        7.03374
H        -11.20459       24.76392        2.23169
H        -11.11270       28.63135        6.15031
