121

C        -17.64615       -3.39293        7.89601
C        -17.04722       -4.59343        8.12604
C        -16.65999       -5.02187        9.42869
N        -16.34184       -5.36679       10.49275
C        -16.83827       -5.55440        7.09986
N        -16.66535       -6.36272        6.27559
C        -18.06926       -2.41155        8.93986
C        -19.04130       -1.57586        8.38601
C        -19.69725       -0.56827        9.08300
C        -19.34133       -0.37077       10.43416
C        -18.33271       -1.17354       10.98949
C        -17.67325       -2.19208       10.25425
S        -18.03633       -0.74474       12.63741
C        -19.23809        0.43957       12.61220
C        -19.85447        0.56393       11.39645
Br       -19.68197        1.48151       14.10381
C        -19.22546       -1.86420        6.95836
O        -20.05629       -1.34023        6.24578
C        -18.18446       -2.89108        6.61260
C        -17.74721       -3.11898        5.36431
C        -18.21044       -2.48871        4.13599
C        -17.74160       -2.73178        2.90124
C        -18.17633       -2.03105        1.71539
C        -17.46080       -2.33114        0.62141
C        -16.39128       -3.28537        0.86528
S        -16.49757       -3.88974        2.51531
C        -15.40709       -3.62764        0.01230
C        -15.22919       -3.13526       -1.34058
C        -14.08639       -3.53164       -1.91929
C        -13.26111       -4.35429       -1.06442
S        -14.07019       -4.69493        0.44322
C        -12.01919       -4.76542       -1.37208
C        -11.11070       -5.42945       -0.48206
C        -10.26388       -4.64614        0.27393
S         -9.28250       -5.56803        1.29621
C         -9.97508       -7.03203        0.74649
C        -10.94590       -6.85532       -0.23345
C        -11.56611       -8.04040       -0.75718
C        -12.63711       -7.92864       -1.84149
C        -12.08253       -7.94020       -3.26160
C        -11.16845       -9.36214       -0.25628
C        -11.87360      -10.59118       -0.83254
C        -13.11677      -10.99569       -0.04299
C        -10.15066       -9.48314        0.76823
C         -9.50092      -10.60506        1.46479
C         -8.57707      -10.19444        2.40261
S         -8.42168       -8.51219        2.45683
C         -9.59706       -8.29507        1.23405
C         -9.76672      -11.99809        1.26704
C         -8.93242      -13.04078        1.45138
C         -9.33801      -14.37622        1.12424
S        -10.43274      -14.64715       -0.16371
C        -10.46123      -16.34506        0.02823
C         -9.52135      -16.72692        0.97463
C         -8.94013      -15.59086        1.66630
C         -7.99498      -15.76674        2.82454
C         -7.95733      -17.20454        3.35724
C         -7.87660      -18.21109        2.20128
N         -7.66328      -19.56238        2.72981
C         -9.16327      -18.14432        1.34700
C        -11.32586      -17.14149       -0.78737
C        -12.51069      -16.67446       -1.21852
C        -13.44334      -17.39073       -2.04923
C        -13.24617      -17.90011       -3.27067
C        -12.08957      -18.00352       -4.17044
C        -11.18008      -17.04386       -4.46961
C        -10.13515      -17.24649       -5.41836
N         -9.28082      -17.42828       -6.18045
C        -11.28283      -15.70810       -3.97482
N        -11.37384      -14.59775       -3.66180
C        -12.30653      -19.24802       -4.96825
C        -13.65222      -19.60960       -4.84344
C        -14.31997      -18.77991       -3.83026
O        -15.48369      -18.84970       -3.49652
C        -14.24771      -20.64468       -5.55054
C        -13.43108      -21.38518       -6.43262
C        -12.06321      -21.07630       -6.50800
C        -11.47522      -20.01858       -5.76946
S        -11.24847      -22.13392       -7.60537
C        -12.68244      -22.92868       -8.00439
C        -13.77197      -22.46270       -7.31932
Br       -12.77082      -24.31397       -9.26162
H        -20.44929        0.04640        8.59487
H        -16.88278       -2.75470       10.73742
H        -20.64274        1.27731       11.18762
H        -16.91273       -3.79958        5.22202
H        -18.97745       -1.72348        4.23136
H        -18.98273       -1.30990        1.72915
H        -17.63827       -1.87112       -0.33980
H        -15.93983       -2.48479       -1.82981
H        -13.77914       -3.23034       -2.91102
H        -11.60373       -4.48893       -2.33810
H        -10.19114       -3.56721        0.28908
H        -13.20263       -7.00753       -1.70256
H        -13.40377       -8.69968       -1.73135
H        -11.36532       -7.12957       -3.42387
H        -12.89999       -7.80983       -3.98011
H        -11.58051       -8.88309       -3.49859
H        -11.17606      -11.42836       -0.89509
H        -12.14370      -10.43656       -1.88011
H        -12.90606      -11.14378        1.02098
H        -13.52322      -11.93323       -0.43825
H        -13.90422      -10.23878       -0.11636
H         -7.98233      -10.80201        3.07078
H        -10.76879      -12.21658        0.92734
H         -7.92259      -12.89578        1.82468
H         -8.28127      -15.09656        3.64347
H         -6.98782      -15.48238        2.49800
H         -8.85390      -17.40320        3.96101
H         -7.09589      -17.30858        4.02852
H         -7.01303      -17.95440        1.57327
H         -7.50825      -20.21316        1.96056
H         -6.80937      -19.57864        3.28821
H        -10.00695      -18.58195        1.89605
H         -9.01860      -18.73883        0.43609
H        -11.00950      -18.15162       -1.02805
H        -12.87801      -15.69648       -0.90432
H        -14.42392      -17.51006       -1.58121
H        -15.30492      -20.86392       -5.42853
H        -10.40976      -19.83923       -5.86412
H        -14.77507      -22.85417       -7.43972
