98

C        -13.50659       -1.21645       -1.88615
C        -12.88296       -2.33285       -1.43424
C        -13.53277       -3.59507       -1.30956
N        -14.04900       -4.62724       -1.20561
C        -11.52206       -2.35143       -1.00574
N        -10.41866       -2.38654       -0.65888
C        -14.95663       -1.10657       -2.25914
C        -15.26360        0.23891       -2.46245
C        -16.52059        0.71629       -2.82355
C        -17.55867       -0.22338       -2.98707
C        -17.26907       -1.58044       -2.78647
C        -15.97345       -2.04225       -2.43114
S        -18.67557       -2.55577       -3.02990
C        -19.62593       -1.20906       -3.39292
C        -18.93547       -0.02804       -3.34742
Br       -21.44672       -1.32286       -3.81724
C        -14.08375        1.08478       -2.27264
O        -14.10068        2.29576       -2.34798
C        -12.93176        0.15226       -2.00570
C        -11.65269        0.56671       -2.04598
C        -11.19758        1.93580       -2.18260
C        -10.04157        2.27291       -2.77402
C         -9.66294        3.63958       -2.86611
O        -10.02201        4.59494       -1.93724
C         -9.48421        5.81966       -2.27681
C         -8.77083        5.62957       -3.44939
C         -8.89489        4.28246       -3.81770
O         -8.36369        3.70189       -4.90793
O         -8.08639        6.56087       -4.14124
C         -9.67724        6.99024       -1.49627
C        -10.79791        7.14944       -0.77566
C        -11.04934        8.32513        0.02579
C        -11.11690        9.55171       -0.50422
N        -11.38425       10.72991        0.15295
C        -11.42994       11.98873       -0.37481
S        -11.14770       12.29263       -2.05776
C        -11.36095       13.94332       -1.86771
N        -11.24292       14.78280       -3.00861
O        -12.23924       15.45118       -3.30441
O        -10.15041       14.78971       -3.58972
C        -11.67450       14.31699       -0.59113
C        -11.69721       13.18412        0.29394
C        -11.97846       13.28261        1.70539
C        -12.25983       14.44095        2.32893
C        -12.53609       14.60142        3.74540
C        -12.82185       15.76291        4.36109
C        -12.98024       15.92602        5.78978
C        -13.06409       17.20620        6.18531
C        -12.99212       18.15893        5.09512
S        -12.99709       17.29916        3.55285
C        -12.82258       19.49008        5.19294
C        -12.63044       20.27419        6.40070
C        -12.09878       21.48731        6.17002
C        -11.84978       21.73644        4.76593
S        -12.61640       20.51775        3.78676
C        -11.04358       22.69097        4.27406
C        -10.67205       22.84330        2.87750
C        -11.46584       23.06695        1.81764
C        -10.65031       23.10928        0.62109
C        -10.99041       23.12936       -0.68315
C        -12.33581       23.09817       -1.15411
N        -13.41372       23.06679       -1.56127
C         -9.96470       23.14408       -1.67238
N         -9.13029       23.15505       -2.47995
O         -9.30045       23.08537        0.99306
C         -9.24204       22.75531        2.40759
C         -8.63510       21.34948        2.49863
C         -8.32323       23.77901        3.07652
C        -12.87082       23.25691        1.86900
N        -14.01774       23.41925        1.91367
H        -16.68607        1.77969       -2.97653
H        -15.83160       -3.10914       -2.31207
H        -19.37681        0.93958       -3.55510
H        -10.82971       -0.13754       -1.97986
H        -11.82943        2.72055       -1.76779
H         -9.38308        1.53275       -3.21829
H         -7.86037        4.38384       -5.39217
H         -8.16261        7.42942       -3.71044
H         -8.90145        7.74842       -1.48579
H        -11.57133        6.38113       -0.77174
H        -11.21344        8.17578        1.08790
H        -10.97325        9.65985       -1.57785
H        -11.62421       10.60088        1.13129
H        -11.86843       15.34294       -0.30206
H        -11.96896       12.36218        2.28217
H        -12.26540       15.35347        1.73965
H        -12.45915       13.70117        4.34936
H        -12.98555       15.09025        6.47500
H        -13.14432       17.50782        7.22007
H        -12.82957       19.89407        7.39269
H        -11.82481       22.18551        6.94983
H        -10.54091       23.35855        4.97113
H         -9.30085       20.59556        2.06196
H         -8.41470       21.05936        3.53049
H         -7.70343       21.29927        1.92008
H         -8.71427       24.79607        2.95968
H         -7.33114       23.77216        2.61082
H         -8.19852       23.57638        4.14561
