125

C         -2.66116       -2.00330        0.26677
C         -2.46727       -2.51525       -0.96850
C         -1.84316       -3.80138       -1.19443
N         -1.36279       -4.83297       -1.36396
C         -2.91340       -1.85807       -2.15855
N         -3.27728       -1.32945       -3.12071
C         -2.38975       -2.68741        1.56744
C         -3.13928       -2.05170        2.56090
C         -3.13893       -2.42701        3.89928
C         -2.29534       -3.49192        4.28439
C         -1.51840       -4.12433        3.30134
C         -1.55286       -3.73774        1.93329
S         -0.55048       -5.38035        3.99385
C         -1.14049       -5.07133        5.54511
C         -2.06031       -4.05846        5.58427
Br        -0.58507       -6.01577        7.06497
C         -3.85898       -0.89070        2.01357
O         -4.67590       -0.23015        2.61638
C         -3.37323       -0.74013        0.60350
C         -3.42826        0.41235       -0.08366
C         -4.00287        1.67978        0.38765
C         -5.34327        1.99487        0.12364
C         -5.82463        3.24928        0.49016
C         -4.98473        4.17921        1.14239
C         -3.67338        3.85443        1.44422
C         -3.18012        2.60439        1.05777
C         -5.70470        5.41676        1.35439
C         -7.01078        5.28406        0.85087
C         -7.23650        3.84078        0.33901
C         -7.70846        3.95082       -1.13877
C         -8.02921        2.66687       -1.89051
C         -8.24945        3.10290        1.25902
C         -7.82771        2.95064        2.72788
C         -7.87393        6.37947        0.79441
C         -7.43181        7.62698        1.25973
C         -6.14120        7.72959        1.82008
C         -5.27841        6.62638        1.87350
C         -8.28270        8.81349        1.04029
C         -8.37501        9.83335        1.90945
C         -9.20210       11.04035        1.75831
C         -8.81168       12.31221        2.28512
N         -7.62864       12.82850        2.82807
C         -6.38175       12.08958        2.82561
C         -6.17206       11.32519        4.11317
C         -7.78818       14.13533        3.30592
C         -9.11120       14.47697        2.97911
C         -9.71536       13.37647        2.29788
C        -10.99600       13.21866        1.72598
C        -11.36528       12.00263        1.16406
C        -10.48812       10.92862        1.19909
C         -9.62912       15.74235        3.33843
C         -8.83316       16.66518        3.99879
C         -7.51949       16.34281        4.29760
C         -6.95812       15.08032        3.99095
C         -5.54622       14.82361        4.33974
C         -4.93944       15.32705        5.43070
C         -3.55512       15.20314        5.79948
C         -2.91142       16.21457        6.59124
C         -1.60026       15.91969        6.87743
S         -0.50954       16.89426        7.84409
C         -0.84780       16.19609        9.47835
S         -1.11216       14.46412        6.15851
C         -2.69648       14.14748        5.52635
C         -2.87056       12.87815        4.91748
C         -3.27579       11.82718        5.66955
C         -2.97738       10.64813        4.89940
C         -3.10411        9.35293        5.22973
C         -2.49907        8.42266        4.30839
C         -2.22431        7.11932        4.47401
C         -1.37384        6.65664        3.36675
C         -1.26838        7.64390        2.44544
C         -1.90394        8.80764        3.02078
C         -1.89666       10.09638        2.63169
C         -2.40005       11.04871        3.60632
C         -2.36944       12.39133        3.62149
C         -0.68463        5.39300        3.27242
C         -0.33020        4.67493        4.34695
H         -3.74555       -1.89163        4.62467
H         -0.90769       -4.25734        1.23279
H         -2.54421       -3.71613        6.49139
H         -2.96635        0.52031       -1.06146
H         -5.98711        1.26841       -0.35853
H         -3.03440        4.55977        1.95921
H         -2.14266        2.36179        1.27520
H         -6.95697        4.50082       -1.72238
H         -8.62112        4.56030       -1.17875
H         -7.14628        2.04344       -2.03746
H         -8.40191        2.92038       -2.89013
H         -8.80671        2.08239       -1.39256
H         -8.43754        2.09286        0.87615
H         -9.21117        3.63106        1.23915
H         -7.00366        2.23687        2.83364
H         -8.66417        2.56816        3.32198
H         -7.51927        3.89972        3.17609
H         -8.86425        6.27621        0.36135
H         -5.77001        8.68535        2.18219
H         -4.27913        6.74072        2.27496
H         -8.84199        8.82227        0.10818
H         -7.85181        9.74466        2.84483
H         -5.56295       12.77612        2.62045
H         -6.36241       11.42733        1.95661
H         -6.14870       11.97930        4.98822
H         -5.24204       10.77952        4.02383
H         -6.93601       10.57612        4.31893
H        -11.69869       14.04665        1.72841
H        -12.35317       11.88319        0.72821
H        -10.82990        9.97509        0.80673
H        -10.65954       15.99342        3.10342
H         -9.23618       17.63617        4.27496
H         -6.91994       17.11017        4.78494
H         -4.95258       14.26625        3.63384
H         -5.52594       15.95451        6.10004
H         -3.39771       17.11750        6.94037
H         -0.20022       16.67804       10.21547
H         -0.64940       15.12055        9.49332
H         -1.88911       16.37415        9.76118
H         -3.60102       11.83548        6.69709
H         -3.52002        9.01449        6.16901
H         -2.48113        6.52081        5.33348
H         -0.68059        7.63812        1.54199
H         -1.42676       10.43729        1.71846
H         -1.96462       13.03758        2.85848
H         -0.39933        5.04863        2.28200
H         -0.55057        5.00419        5.35891
H          0.22233        3.74818        4.24388
