114

C         -0.22600       -0.91009        0.37176
C          0.65593       -1.74521       -0.22602
C          2.05843       -1.65961        0.00345
N          3.19758       -1.58036        0.20730
C          0.24959       -2.68328       -1.22189
N         -0.05926       -3.42617       -2.05774
C          0.11160        0.31467        1.13456
C         -0.92386        1.24684        0.92716
C         -0.90680        2.52198        1.46349
C          0.17617        2.86457        2.27696
C          1.19392        1.92323        2.54846
C          1.16244        0.64137        1.97535
Cl         2.51174        2.27937        3.60943
Cl         0.19228        4.45428        2.95330
C         -2.04181        0.61243        0.19551
O         -3.07000        1.14300       -0.16261
C         -1.66812       -0.83789        0.11853
C         -2.65621       -1.74452        0.17916
C         -2.47002       -3.08857        0.62275
C         -1.60698       -3.59969        1.59988
C         -1.75245       -4.99238        1.75137
C         -2.74197       -5.48146        0.93096
S         -3.50069       -4.34340       -0.01071
C         -2.86549       -6.86807        1.14983
C         -1.95895       -7.25361        2.11293
C         -1.18787       -6.08786        2.54576
C         -0.18384       -6.03208        3.44649
C          0.26934       -7.19013        4.13749
N          0.64057       -8.13533        4.69622
C          0.48824       -4.80381        3.72082
N          1.01414       -3.78546        3.90199
C         -2.05726       -8.63310        2.39050
C         -3.04886       -9.23360        1.61048
S         -3.81272       -8.08968        0.54799
C         -3.48459      -10.60900        1.63962
C         -3.92977      -11.38511        0.59693
C         -4.35820      -12.72060        0.97244
C         -4.91982      -13.77489        0.20320
C         -5.19280      -13.58116       -1.25315
C         -4.95378      -14.43078       -2.32739
C         -5.39343      -13.91056       -3.58087
C         -5.88262      -12.62984       -3.46940
S         -6.02048      -12.17511       -1.82629
C         -6.32487      -11.69620       -4.54806
Cl        -5.27646      -14.81007       -5.03326
C         -5.23833      -15.01098        0.81348
C         -5.00521      -15.24231        2.17938
C         -4.44691      -14.18705        2.95979
C         -4.15097      -12.93690        2.34630
S         -3.55960      -11.47778        3.08476
C         -4.23536      -14.39740        4.43247
C         -5.00425      -15.08937        5.36337
C         -4.50261      -15.02146        6.70113
C         -3.39368      -14.21489        6.79855
S         -2.81948      -13.80818        5.24155
C         -2.65476      -13.73983        8.00757
Cl        -5.26705      -15.83211        8.00087
C         -5.40458      -16.59471        2.52739
C         -5.93919      -17.32789        1.49110
S         -5.96979      -16.40073        0.07603
C         -6.44540      -18.68205        1.55088
C         -7.07433      -19.28665        2.64068
C         -7.40144      -20.63052        2.36158
C         -7.00054      -20.99897        1.09487
S         -6.28586      -19.78746        0.21385
C         -7.29748      -22.36549        0.90065
C         -7.89105      -22.84698        2.04141
C         -8.01374      -21.78097        3.02632
C         -8.57154      -21.84840        4.24925
C         -9.13907      -23.04428        4.77398
N         -9.61759      -24.00554        5.21799
C         -8.64825      -20.69901        5.08741
N         -8.71834      -19.76291        5.75757
C         -8.20541      -24.21033        1.93249
C         -7.75961      -24.75960        0.73218
S         -7.09737      -23.49709       -0.29916
C         -7.75799      -26.10234        0.23567
C         -7.53322      -27.20419        0.97690
C         -7.20674      -28.57425        0.49373
C         -7.75736      -29.22839       -0.55710
C         -7.46335      -30.59306       -0.84309
N         -7.21459      -31.70744       -1.06076
C         -8.72846      -28.62082       -1.41236
N         -9.49885      -28.11191       -2.10487
C         -6.27612      -29.15800        1.51086
C         -6.32814      -28.35242        2.65335
C         -7.22976      -27.22868        2.44844
O         -7.64568      -26.55343        3.36211
C         -5.57082      -28.55063        3.79703
C         -4.68477      -29.61825        3.79530
C         -4.59438      -30.45350        2.66264
C         -5.38826      -30.22354        1.51751
Cl        -3.49151      -31.78369        2.60804
Cl        -3.70320      -29.83483        5.19835
H         -1.72498        3.21191        1.27809
H          1.94257       -0.07372        2.22424
H         -3.68414       -1.41959        0.00923
H         -0.93100       -2.97466        2.16849
H         -1.46651       -9.18556        3.11191
H         -3.96953      -10.99776       -0.41260
H         -4.49806      -15.40848       -2.23035
H         -5.72810      -11.83574       -5.45693
H         -6.20803      -10.64805       -4.25126
H         -7.37518      -11.87020       -4.80013
H         -5.91557      -15.61892        5.11912
H         -3.20258      -13.95247        8.93187
H         -2.50634      -12.65357        7.97204
H         -1.67423      -14.21974        8.07826
H         -5.29807      -17.02076        3.51578
H         -7.26578      -18.76064        3.56848
H         -8.69642      -24.78531        2.70220
H         -7.81538      -26.18657       -0.84731
H         -5.65691      -27.86858        4.63900
H         -5.26031      -30.87520        0.65801
