102

C         -8.97774        0.44153        2.23933
C         -9.15665       -0.11260        3.50475
F         -9.87483        0.55706        4.41633
C         -8.62154       -1.35450        3.81458
F         -8.81697       -1.89060        5.02664
C         -7.89776       -2.06693        2.86536
C         -7.72994       -1.54464        1.57529
C         -8.27928       -0.26646        1.24906
C         -8.16948        0.24241       -0.06483
C         -7.56802       -0.52956       -1.05022
C         -7.05115       -1.78311       -0.69611
C         -7.08386       -2.29529        0.59074
C         -6.68698       -2.54532       -1.89890
O         -6.10424       -3.60821       -1.90941
C         -7.26324       -1.76073       -3.04774
C         -7.48180       -0.39418       -2.53190
C         -7.46010        0.76676       -3.23813
C         -7.52258        2.03475       -2.60156
N         -7.58019        3.06246       -2.06344
C         -7.32042        0.79897       -4.65441
N         -7.25731        0.83999       -5.81204
C         -7.71137       -2.32527       -4.18525
C         -7.62099       -3.73176       -4.55084
C         -6.97669       -4.22466       -5.63874
N         -6.33011       -3.41996       -6.64907
O         -6.24315       -3.91966       -7.77912
O         -5.89259       -2.30664       -6.33293
C         -6.94315       -5.66722       -5.64483
C         -7.54154       -6.11628       -4.53097
C         -8.04559       -4.96027       -3.78608
C         -8.75701       -4.99793       -2.63463
C         -9.63889       -3.91221       -2.19634
C        -10.13523       -4.23761       -0.99580
C         -9.57056       -5.51057       -0.59879
N         -9.78194       -6.05174        0.72818
O         -8.91503       -6.77699        1.23006
O        -10.81505       -5.68873        1.31050
C         -8.76780       -6.03854       -1.55383
C         -7.92370       -7.21034       -1.40313
C         -8.05401       -8.33700       -2.11794
C         -7.19884       -9.45278       -1.97263
N         -5.86580       -9.34546       -1.57570
C         -5.33606      -10.64895       -1.57910
C         -6.34918      -11.46770       -1.97789
C         -7.49691      -10.74251       -2.23246
N         -8.61482      -11.38921       -2.63547
C         -8.15391      -12.70902       -2.63200
C         -6.79010      -12.79420       -2.24686
C         -6.00711      -14.05838       -2.13537
S         -6.64679      -15.61465       -2.40592
C         -5.15007      -16.37954       -2.04157
C         -4.17111      -15.44427       -1.76054
C         -4.67212      -14.10963       -1.80079
C         -2.80672      -15.77208       -1.46565
N         -1.69269      -16.01141       -1.25483
C         -5.07421      -17.79500       -2.09566
C         -5.37533      -18.52370       -1.00977
C         -5.35305      -19.96675       -1.04085
C         -5.61335      -20.82300       -0.04473
C         -5.87335      -22.24386       -0.44180
O         -5.57467      -22.80311       -1.47598
C         -6.64751      -22.82203        0.66391
C         -7.16827      -24.10333        0.69588
C         -7.87691      -24.49004        1.83456
C         -8.10115      -23.54899        2.88542
C         -8.80830      -23.95644        4.02488
C         -9.25643      -25.26904        4.13574
C         -9.02876      -26.18258        3.11596
C         -8.35384      -25.80058        1.96233
F         -9.44879      -27.44871        3.23840
F         -9.89998      -25.64790        5.24800
C         -7.58543      -22.24059        2.79301
C         -6.80571      -21.88875        1.70083
C         -5.97110      -20.69554        1.37330
C         -5.40060      -19.88025        2.29497
C         -4.27903      -19.05965        1.98450
N         -3.34185      -18.41086        1.76296
C         -5.78141      -19.87278        3.66781
N         -6.11550      -19.86125        4.78041
H         -9.41992        1.41380        2.03644
H         -7.50257       -3.04200        3.13997
H         -8.62904        1.19986       -0.29613
H         -6.69160       -3.28916        0.79157
H         -8.21268       -1.71971       -4.93869
H         -6.51746       -6.26794       -6.43577
H         -7.71885       -7.15643       -4.33324
H         -9.91286       -3.03752       -2.76301
H        -10.83975       -3.66584       -0.41044
H         -7.17593       -7.14067       -0.61166
H         -8.85818       -8.41519       -2.84546
H         -5.35453       -8.50293       -1.34334
H         -4.30980      -10.82145       -1.28717
H         -9.52447      -11.00369       -2.85182
H         -8.84919      -13.49345       -2.90171
H         -4.06601      -13.23540       -1.60042
H         -4.77410      -18.25317       -3.03454
H         -5.69248      -18.02091       -0.10074
H         -5.18280      -20.39150       -2.03466
H         -6.99580      -24.77956       -0.13766
H         -8.99584      -23.27315        4.84937
H         -8.18892      -26.54142        1.18445
H         -7.78733      -21.54214        3.59962
