104

C         -9.09270        1.75166        1.31731
C         -8.60294        2.40126        2.45417
F         -9.13803        3.57825        2.81048
C         -7.58337        1.84714        3.21386
F         -7.13492        2.46788        4.31235
C         -7.01162        0.63730        2.84214
C         -7.47641       -0.02268        1.69825
C         -8.54654        0.51142        0.92461
C         -9.04055       -0.19921       -0.20800
C         -8.46062       -1.40882       -0.57544
C         -7.38616       -1.85455        0.19825
C         -6.88386       -1.21601        1.31863
C         -6.85164       -3.10219       -0.31453
O         -5.74565       -3.49809       -0.02192
C         -7.87081       -3.62511       -1.28230
C         -8.70978       -2.43993       -1.63780
C         -9.41533       -2.26923       -2.77929
C         -9.47375       -3.26689       -3.80018
N         -9.53003       -4.07496       -4.63553
C        -10.07801       -1.04274       -3.09116
N        -10.60637       -0.03738       -3.33637
C         -8.06928       -4.93370       -1.54527
C         -7.31242       -6.09965       -1.05084
C         -7.96769       -7.33618       -0.82137
N         -9.25737       -7.66017       -1.00541
O         -9.37839       -8.98032       -0.62709
N         -8.19361       -9.48234       -0.14634
C         -7.26839       -8.52691       -0.30740
C         -5.87657       -8.53288       -0.03185
C         -5.24862       -7.29999       -0.30557
C         -5.92730       -6.16665       -0.81997
C         -5.16166       -9.71681        0.46103
S         -3.83340       -9.51353        1.53751
C         -3.46593      -11.19990        1.62211
C         -4.39232      -11.90996        0.88837
C         -5.34270      -11.06202        0.21568
N         -6.31226      -11.53715       -0.60037
C         -6.33459      -12.88858       -0.66053
O         -7.33438      -13.47860       -1.41551
C         -8.20833      -12.54696       -2.06701
C         -7.62417      -12.12048       -3.40255
C         -5.41445      -13.73322       -0.00023
C         -5.48213      -15.23634       -0.21623
N         -4.95449      -16.02447        0.90733
N         -4.38993      -13.26665        0.78333
C         -2.31270      -11.65541        2.42146
C         -1.17706      -10.85324        2.55947
C         -0.09354      -11.27154        3.34630
N          0.99927      -10.32348        3.42785
O          1.57568      -10.03951        2.36975
O          1.26934       -9.84372        4.53888
C         -0.07183      -12.51157        4.00780
C         -1.21349      -13.31435        3.85154
C         -2.30649      -12.89854        3.06935
C          0.99369      -13.04057        4.88795
C          2.29684      -12.76894        4.75459
C          3.35293      -13.21495        5.63271
C          4.09012      -12.37686        6.37888
C          5.52341      -12.74621        6.62216
O          6.02786      -13.84896        6.60099
C          6.23237      -11.45951        6.77661
C          7.60224      -11.28733        6.90263
C          8.09588       -9.98159        7.02881
C          7.19524       -8.87554        6.96875
C          7.69402       -7.57259        7.11052
C          9.05161       -7.36435        7.32679
C          9.92807       -8.43835        7.38472
C          9.46365       -9.74124        7.22771
F         11.23344       -8.23011        7.60370
F          9.50398       -6.11375        7.49046
C          5.81561       -9.09174        6.79581
C          5.32458      -10.38842        6.74218
C          3.94704      -10.94936        6.70184
C          2.83202      -10.33436        7.16842
C          1.64457      -11.05964        7.48300
N          0.69182      -11.63642        7.81230
C          2.79262       -8.95453        7.51842
N          2.77363       -7.82941        7.80821
H         -9.88548        2.21964        0.75312
H         -6.21351        0.22523        3.45094
H         -9.87877        0.22240       -0.75662
H         -6.05839       -1.65982        1.86924
H         -8.93901       -5.23276       -2.12982
H         -4.17783       -7.18020       -0.13265
H         -5.29827       -5.30988       -1.04652
H         -8.46023      -11.68765       -1.43927
H         -9.15998      -13.06160       -2.23700
H         -6.63648      -11.66392       -3.28233
H         -8.27937      -11.40250       -3.90293
H         -7.49205      -12.99290       -4.05005
H         -4.90305      -15.47494       -1.11517
H         -6.51605      -15.55445       -0.38395
H         -5.48455      -15.78965        1.74461
H         -5.10056      -17.01381        0.72560
H         -1.11590       -9.88884        2.05765
H         -1.27468      -14.29018        4.33390
H         -3.15789      -13.57364        2.98049
H          0.65595      -13.68441        5.70124
H          2.67016      -12.16905        3.92790
H          3.71791      -14.22304        5.43056
H          8.25899      -12.15347        6.91692
H          7.03563       -6.70778        7.07853
H         10.17921      -10.55734        7.28180
H          5.15756       -8.23079        6.72533
