97

C         -0.60294        2.64980       -1.19844
C         -1.50472        2.76093       -0.13948
C         -1.09583        2.47641        1.16047
C          0.21542        2.07057        1.40899
C          1.13162        1.93078        0.35788
C          2.42850        1.44500        0.60531
C          3.27771        1.20955       -0.46482
C          2.86440        1.56864       -1.75992
C          1.61124        2.08462       -2.03633
C          0.71563        2.23441       -0.97126
C          3.90220        1.23549       -2.75452
O          3.86398        1.45901       -3.94584
C          5.01321        0.60698       -1.97601
C          4.53259        0.42273       -0.60023
C          4.74973       -0.66370        0.17347
C          5.09904       -1.91270       -0.42338
N          5.26193       -2.94273       -0.92961
C          4.52949       -0.67096        1.57922
N          4.41669       -0.65116        2.73385
C          6.22779        0.47342       -2.53269
C          7.41184        0.13278       -1.80689
C          7.78289        0.42997       -0.49099
C          9.03336       -0.12521       -0.15979
C          9.60810       -0.75163       -1.24097
S          8.69266       -0.72808       -2.62644
C         10.88066       -1.22780       -0.86126
C         11.09937       -0.91193        0.46163
C          9.93610       -0.20331        0.98896
C          9.74013        0.27040        2.23540
C         10.71139        0.11178        3.26120
N         11.50561       -0.01347        4.09786
C          8.54952        0.96522        2.58277
N          7.57010        1.53852        2.82575
C         12.37481       -1.32720        0.89280
C         13.09011       -1.91946       -0.14970
S         12.14428       -2.00047       -1.60891
C         14.44985       -2.40770       -0.11531
C         15.34533       -2.48948       -1.16397
C         16.61888       -2.98976       -0.76195
C         16.66937       -3.30100        0.58302
S         15.16724       -2.96493        1.33845
C         17.78478       -3.84354        1.32578
C         17.73492       -4.64682        2.46656
C         19.02886       -5.01274        2.88988
C         20.00148       -4.47434        2.07736
S         19.42648       -3.53678        0.83389
C         21.26678       -4.88936        2.54376
C         21.09236       -5.70200        3.64252
C         19.66364       -5.80789        3.94233
C         19.07227       -6.44315        4.97048
C         19.82676       -7.16318        5.93482
N         20.43954       -7.76148        6.72075
C         17.66217       -6.41380        5.16193
N         16.51322       -6.38571        5.31732
C         22.32641       -6.16309        4.15121
C         23.39548       -5.57244        3.47644
S         22.85024       -4.62708        2.11488
C         24.79300       -5.64736        3.74799
C         25.42310       -4.77383        4.55558
C         26.87428       -4.60195        4.84065
C         27.83718       -5.55366        4.79863
C         29.18424       -5.30188        5.18590
N         30.29017       -5.11191        5.48852
C         27.56389       -6.90045        4.42356
N         27.33977       -7.99638        4.11533
C         27.04310       -3.20488        5.35747
C         25.77227       -2.67401        5.60667
C         25.55076       -1.40228        6.11109
C         26.65702       -0.59502        6.38013
C         26.48398        0.69843        6.89214
C         27.58476        1.51037        7.15970
C         28.87144        1.03924        6.91452
C         29.06148       -0.24753        6.40038
C         27.96726       -1.08584        6.12484
C         28.14642       -2.39150        5.60403
C         24.72093       -3.62220        5.22584
O         23.53842       -3.46831        5.45068
H         -0.94786        2.86897       -2.20695
H         -2.53079        3.06431       -0.33141
H         -1.80163        2.55955        1.98324
H          0.50592        1.83925        2.43243
H          2.71381        1.20587        1.62528
H          1.32761        2.30568       -3.06160
H          6.34346        0.68414       -3.59710
H          7.16664        1.02237        0.17196
H         12.79464       -1.18129        1.88095
H         15.11474       -2.19012       -2.17955
H         17.45064       -3.12217       -1.44348
H         16.80187       -4.95018        2.92610
H         22.46789       -6.82123        4.99974
H         25.32304       -6.41849        3.20085
H         24.53486       -1.05401        6.27673
H         25.48600        1.08658        7.08743
H         27.43636        2.51119        7.55851
H         29.72821        1.67384        7.12388
H         30.07957       -0.58854        6.22071
H         29.16021       -2.72086        5.39829
