102

C          2.56327        8.35753        6.50363
C          1.29327        8.69619        6.81979
C          0.94500       10.00899        7.24422
N          0.67213       11.08900        7.57001
C          0.24822        7.72494        6.83151
N         -0.59387        6.92733        6.86987
C          3.77530        9.16667        6.73210
C          4.81891        8.28146        7.04835
C          6.09399        8.71349        7.35965
C          6.36425       10.08528        7.24849
C          5.34465       10.98315        6.80993
C          4.03822       10.51679        6.57943
C          5.66920       12.32846        6.58601
C          6.96223       12.79719        6.81968
C          7.94197       11.93288        7.30031
C          7.64618       10.58550        7.51274
C          4.39049        6.88356        6.78990
O          5.03353        5.87157        6.96261
C          3.04673        7.02651        6.13380
C          2.73918        6.21162        5.10755
C          1.81289        6.53803        4.06199
C          1.00677        5.67610        3.30559
C          0.21556        6.38433        2.36802
C          0.47040        7.73249        2.42313
S          1.68842        8.17561        3.44386
C         -0.39244        8.40803        1.54324
C         -1.18973        7.48997        0.90427
C         -0.82332        6.14406        1.36035
C         -1.30414        4.96282        0.92798
C         -2.30093        4.89092       -0.08308
N         -3.11134        4.84352       -0.91240
C         -0.81501        3.72952        1.43735
N         -0.40397        2.72590        1.85016
C         -2.10603        8.12817        0.03681
C         -1.98194        9.52205        0.09693
S         -0.68100        9.99089        1.15799
C         -2.75088       10.56607       -0.61256
C         -2.96426       11.83908       -0.03412
C         -3.64776       12.86908       -0.70443
C         -4.13037       12.60199       -1.98631
C         -3.94595       11.33943       -2.51593
C         -3.27743       10.29395       -1.88745
O         -4.51854       11.31997       -3.74902
C         -4.99893       12.59812       -3.92461
N         -4.78637       13.39642       -2.89013
C         -5.65828       13.02358       -5.12466
C         -5.69626       14.31072       -5.65896
C         -6.47213       14.33437       -6.83681
C         -6.99323       13.09058       -7.12448
S         -6.55345       11.88495       -6.07416
C         -7.86006       13.19951       -8.22951
C         -7.90163       14.51526       -8.62309
C         -6.95025       15.29343       -7.83164
C         -6.54243       16.56199       -8.03311
C         -7.06035       17.35587       -9.09475
N         -7.48915       18.01479       -9.94890
C         -5.52858       17.15262       -7.22965
N         -4.69369       17.62867       -6.57814
C         -8.90130       14.72458       -9.58941
C         -9.53091       13.52966       -9.96084
S         -8.85707       12.17942       -9.07787
C        -10.64665       13.28431      -10.82557
C        -10.94129       14.01599      -11.91321
C        -12.21086       14.09459      -12.68226
C        -13.01669       13.06258      -13.03305
C        -14.14757       13.24461      -13.88085
N        -15.06770       13.38825      -14.56704
C        -12.74437       11.71974      -12.63698
N        -12.52195       10.63459      -12.30022
C        -12.31899       15.51657      -13.12103
C        -11.06916       16.12522      -12.93553
C        -10.10840       15.15709      -12.40722
O         -8.90124       15.25952      -12.44182
C        -10.82005       17.47088      -13.13695
C        -11.87827       18.26856      -13.57262
C        -13.15324       17.68160      -13.81996
C        -13.36683       16.30374      -13.57636
C        -14.18748       18.50320      -14.29394
C        -13.98197       19.87038      -14.49747
C        -12.74411       20.44220      -14.21802
C        -11.69671       19.64576      -13.75851
H          6.86815        7.99497        7.61248
H          3.27078       11.20453        6.23383
H          4.92112       13.02442        6.21046
H          7.20375       13.83970        6.62714
H          8.94439       12.30492        7.49692
H          8.43329        9.92652        7.87355
H          3.31409        5.29501        4.97308
H          0.99047        4.60565        3.47665
H         -2.84694        7.63564       -0.58147
H         -2.59311       12.06140        0.96547
H         -3.78668       13.84272       -0.24755
H         -3.15527        9.34124       -2.38789
H         -5.19503       15.14977       -5.18853
H         -9.18819       15.69156       -9.98201
H        -11.33573       12.51718      -10.47966
H         -9.83517       17.88073      -12.92636
H        -14.36350       15.89860      -13.72362
H        -15.16781       18.08571      -14.51539
H        -14.79239       20.49120      -14.87163
H        -12.59036       21.50881      -14.36243
H        -10.73634       20.11169      -13.54432
