85

C          1.88540       -7.90590       -8.12907
O          0.94834       -8.52541       -8.58579
C          2.97106       -7.30970       -8.91934
C          3.99605       -6.84235       -8.08057
C          5.07569       -6.18955       -8.66513
C          5.11226       -6.03577      -10.06122
C          4.07008       -6.51812      -10.86529
C          2.97864       -7.16548      -10.29921
Br         4.14020       -6.26221      -12.73647
C          3.62825       -7.15904       -6.66696
C          4.48362       -7.18626       -5.61280
C          5.85603       -6.82149       -5.71177
N          6.97312       -6.52408       -5.79031
C          4.08104       -7.63335       -4.32239
N          3.75534       -7.99746       -3.26729
C          2.20753       -7.60340       -6.69057
C          1.27319       -7.56442       -5.72041
C         -0.15242       -7.86899       -5.83015
C         -0.58484       -9.09988       -6.15660
C         -2.00380       -9.44756       -6.30597
C         -2.38223      -10.54030       -7.02493
C         -3.75164      -10.90727       -7.18150
N         -4.86993      -11.20000       -7.28589
C         -1.43822      -11.38480       -7.68951
N         -0.67213      -12.09426       -8.19502
C         -2.98550       -8.62892       -5.57277
C         -2.73253       -7.36956       -5.16820
S         -1.23243       -6.53497       -5.48436
C         -3.73797       -6.65329       -4.43730
C         -4.78466       -5.86085       -4.87455
C         -5.54952       -5.27431       -3.79269
N         -6.61289       -4.44030       -3.97805
C         -6.86914       -4.23303       -5.30964
C         -8.00948       -3.32766       -5.60370
O         -8.65761       -2.76866       -4.72771
C         -8.36686       -3.09766       -7.01710
C         -7.67696       -3.65199       -8.01384
C         -6.51379       -4.52567       -7.76458
O         -5.90254       -4.98878       -8.71919
C         -6.13769       -4.80651       -6.35629
N         -5.06142       -5.64415       -6.19243
C         -5.08600       -5.63666       -2.54476
S         -3.73346       -6.70421       -2.70720
C         -5.52289       -5.25644       -1.23816
C         -6.51895       -5.93468       -0.63701
C         -6.93868       -5.63516        0.74336
C         -8.18089       -5.94201        1.20484
C         -8.57012       -5.68794        2.55404
N         -8.86288       -5.48271        3.65879
C         -9.18833       -6.47684        0.34959
N         -9.99682       -6.91358       -0.35848
C         -5.91736       -5.07970        1.64252
C         -4.88400       -4.34415        1.19309
S         -4.70861       -3.90524       -0.49228
C         -3.93948       -3.76894        2.13576
C         -2.60045       -3.77823        2.07593
C         -1.85297       -2.79188        2.92421
O         -2.23335       -2.23664        3.93250
C         -0.57603       -2.56771        2.22180
C         -0.47574       -3.42674        1.11160
C         -1.62623       -4.36886        1.15113
C         -1.62375       -5.63216        0.66173
C         -0.54389       -6.14837       -0.11022
N          0.33841       -6.55712       -0.74332
C         -2.64350       -6.57872        0.97803
N         -3.45709       -7.36557        1.23302
C          0.57501       -3.25450        0.22280
C          1.53670       -2.27177        0.49699
C          1.43735       -1.46603        1.64319
C          0.36596       -1.59749        2.52097
Br         2.76405       -0.16137        1.97619
H          5.89855       -5.77153       -8.09464
H          5.96151       -5.52692      -10.51610
H          2.15019       -7.53002      -10.89879
H          1.52924       -7.19869       -4.72782
H          0.15690       -9.87453       -6.34629
H         -3.94584       -9.07934       -5.32505
H         -9.21937       -2.45134       -7.20101
H         -7.93773       -3.48286       -9.05379
H         -6.99736       -6.76571       -1.15283
H         -5.98145       -5.30789        2.70653
H         -4.41714       -3.18265        2.92618
H          0.67530       -3.83813       -0.68705
H          2.36574       -2.13649       -0.19609
H          0.25033       -0.95958        3.39145
