121

C        -10.44098       -0.15320        3.09258
C         -9.51880        0.36388        2.18640
F         -9.01165        1.58652        2.39429
C         -9.11771       -0.37995        1.08655
F         -8.20149        0.10848        0.23991
C         -9.66238       -1.63763        0.84901
C        -10.62175       -2.16571        1.72606
C        -10.99076       -1.42939        2.89369
C        -11.86539       -1.99754        3.84637
C        -12.37842       -3.27013        3.63162
C        -12.05789       -3.93477        2.43679
C        -11.19521       -3.41853        1.48364
C        -12.56425       -5.31892        2.47042
O        -12.67210       -6.08200        1.53627
C        -12.86938       -5.56026        3.91567
C        -13.11817       -4.22572        4.50458
C        -13.95217       -3.92432        5.52691
C        -14.68886       -4.92001        6.23142
N        -15.28261       -5.71479        6.82902
C        -14.20233       -2.57825        5.92946
N        -14.38666       -1.47810        6.24300
C        -12.57849       -6.71253        4.54391
C        -12.07885       -7.95704        3.96967
C        -12.73086       -9.15026        3.99570
N        -14.04355       -9.36898        4.55930
O        -14.68776      -10.32608        4.10708
O        -14.43495       -8.62148        5.46231
C        -11.99521      -10.20252        3.33634
C        -10.87784       -9.67839        2.82083
C        -10.84658       -8.24752        3.14318
C         -9.86441       -7.41232        2.73319
C         -9.58360       -6.09590        3.30311
C         -8.58999       -5.53776        2.59471
C         -8.18097       -6.46934        1.56329
N         -7.16298       -6.14365        0.57213
O         -6.83851       -6.98227       -0.27419
O         -6.68624       -5.00204        0.63726
C         -8.88294       -7.62227        1.61964
C         -8.67941       -8.75362        0.74345
C         -9.57517       -9.31834       -0.08418
C         -9.19632      -10.41381       -0.92970
S         -9.95704      -10.55717       -2.47989
C         -8.93263      -11.85131       -3.01804
C         -8.02105      -12.14913       -2.02197
C         -8.27198      -11.43745       -0.78508
C         -7.56760      -11.69999        0.40252
C         -6.55754      -12.67287        0.24201
C         -5.74000      -13.03472        1.41598
O         -5.60092      -12.27122        2.36274
C         -6.26191      -13.32008       -0.99002
C         -6.98143      -13.08025       -2.17458
C         -9.18045      -12.40081       -4.31862
C         -8.98897      -13.70430       -4.58864
C         -9.28785      -14.34122       -5.85436
C         -8.37978      -14.91767       -6.68136
N         -6.96453      -15.04662       -6.40244
O         -6.20795      -15.10816       -7.38115
O         -6.59639      -15.14720       -5.22390
C         -8.98738      -15.40156       -7.89804
C        -10.30823      -15.16984       -7.84099
C        -10.61160      -14.53562       -6.54996
C        -11.85226      -14.26296       -6.07449
C        -12.11873      -13.68247       -4.75791
C        -13.44050      -13.56084       -4.60382
C        -14.08683      -14.13716       -5.76025
N        -15.48334      -14.52649       -5.70140
O        -15.87512      -15.48093       -6.38278
O        -16.19007      -13.90914       -4.89171
C        -13.19716      -14.53210       -6.70374
C        -13.48241      -15.29148       -7.90832
C        -14.30717      -15.02624       -8.93556
C        -15.15816      -13.87902       -9.17389
C        -14.78955      -12.60222       -9.33792
C        -15.78893      -11.50746       -9.53720
O        -16.98643      -11.61469       -9.68354
C        -15.01295      -10.25461       -9.54016
C        -15.47371       -9.00444       -9.92000
C        -14.52361       -7.99380      -10.12375
C        -13.15169       -8.23471       -9.80642
C        -12.18888       -7.25882      -10.08084
C        -12.56198       -6.07664      -10.70580
C        -13.89266       -5.83387      -11.01636
C        -14.87786       -6.77006      -10.70962
F        -14.23719       -4.70398      -11.64809
F        -11.61479       -5.18979      -11.03858
C        -12.74187       -9.48006       -9.31595
C        -13.65892      -10.51802       -9.27661
C        -13.44838      -12.00101       -9.28874
C        -12.36590      -12.46578       -9.93718
C        -12.50415      -13.19481      -11.16563
N        -12.61533      -13.68291      -12.20513
C        -11.04819      -12.06425       -9.57694
N         -9.98738      -11.75038       -9.22407
H        -10.71614        0.45540        3.95050
H         -9.31685       -2.19473       -0.01855
H        -12.06830       -1.44872        4.76266
H        -10.92520       -4.01583        0.61649
H        -12.67550       -6.76317        5.62940
H        -12.28054      -11.24394        3.32196
H        -10.10272      -10.25789        2.34987
H        -10.02583       -5.66757        4.18612
H         -8.12216       -4.58044        2.77747
H         -7.64856       -9.10781        0.74765
H        -10.58299       -8.91255       -0.16526
H         -7.74993      -11.23578        1.36321
H         -5.26319      -14.02893        1.39269
H         -5.43111      -14.02398       -1.04063
H         -6.70398      -13.56764       -3.09950
H         -9.63482      -11.75617       -5.06926
H         -8.60198      -14.38611       -3.83365
H         -8.44298      -15.85277       -8.71501
H        -10.99353      -15.41998       -8.63085
H        -11.42669      -13.44047       -3.97393
H        -13.94382      -13.19306       -3.72146
H        -12.98559      -16.26281       -7.92557
H        -14.43699      -15.81481       -9.68119
H        -16.21700      -14.12931       -9.27846
H        -16.52507       -8.86349      -10.16110
H        -11.13436       -7.42662       -9.87542
H        -15.90564       -6.55159      -10.98678
H        -11.69149       -9.63526       -9.09039
