110

C        -10.23573        0.13761        1.43060
C         -9.24202        0.53760        0.54106
F         -8.78578        1.79619        0.59293
C         -8.71895       -0.35579       -0.38284
F         -7.74736        0.03064       -1.22017
C         -9.19124       -1.66171       -0.44817
C        -10.20065       -2.08595        0.42573
C        -10.72478       -1.17701        1.39807
C        -11.69338       -1.61113        2.32777
C        -12.13204       -2.92712        2.28473
C        -11.61576       -3.78624        1.30498
C        -10.67100       -3.40077        0.37186
C        -12.06101       -5.16601        1.55628
O        -11.97679       -6.09833        0.78971
C        -12.58545       -5.13818        2.96304
C        -12.98011       -3.73636        3.20127
C        -14.04695       -3.29002        3.90509
C        -14.48644       -1.93618        3.81221
N        -14.83271       -0.83531        3.69589
C        -14.87218       -4.15389        4.68325
N        -15.54754       -4.82696        5.34049
C        -12.41300       -6.14335        3.83874
C        -11.90559       -7.48125        3.54405
C        -12.61377       -8.62831        3.71418
N        -13.93072       -8.70090        4.30640
O        -14.66369       -9.62410        3.92680
O        -14.22831       -7.87752        5.17977
C        -11.95600       -9.77584        3.13661
C        -10.80895       -9.37318        2.57341
C        -10.66732       -7.93110        2.80417
C         -9.60113       -7.19598        2.41347
C         -9.26548       -5.87493        2.95296
C         -8.15773       -5.44069        2.33463
C         -7.74585       -6.44745        1.37789
N         -6.61125       -6.26536        0.49721
O         -6.60738       -6.83166       -0.60519
O         -5.72456       -5.49958        0.89625
C         -8.56234       -7.52699        1.38651
C         -8.40812       -8.68325        0.52434
C         -9.33564       -9.16194       -0.32384
C         -9.08313      -10.29241       -1.17314
S         -9.89229      -10.34900       -2.71128
C         -9.14323      -11.82654       -3.21089
C         -8.24014      -12.22848       -2.24506
C         -8.29531      -11.42691       -1.04032
C         -7.58841      -11.76588        0.12688
C         -6.78958      -12.92688       -0.00395
C         -5.99960      -13.41400        1.18175
C         -6.68733      -13.66053       -1.22660
C         -7.40597      -13.34581       -2.39465
C         -9.53782      -12.40805       -4.46013
C         -9.73164      -13.73513       -4.57113
C        -10.12406      -14.36096       -5.78954
S        -10.95241      -15.86814       -5.73033
C        -11.13498      -15.96294       -7.44280
C        -10.56914      -14.84951       -8.04127
C         -9.94193      -13.97255       -7.10282
C        -10.62828      -14.57441       -9.44401
N        -10.67721      -14.34898      -10.58420
C        -11.84577      -17.08159       -7.97533
C        -11.40096      -17.87876       -8.96091
C        -10.10482      -17.82812       -9.58916
C         -9.76016      -17.59900      -10.86464
C         -8.27537      -17.42739      -11.09488
O         -7.36353      -17.71466      -10.34547
C         -8.13353      -16.77207      -12.39938
C         -6.96381      -16.25078      -12.93651
C         -7.05051      -15.51611      -14.12764
C         -8.32532      -15.30725      -14.73012
C         -8.42161      -14.54659      -15.90339
C         -7.27856      -14.00781      -16.48051
C         -6.03520      -14.21147      -15.89954
C         -5.91211      -14.95657      -14.72912
F         -4.93763      -13.68717      -16.46158
F         -7.39076      -13.28862      -17.60546
C         -9.48258      -15.85145      -14.14620
C         -9.38698      -16.62812      -12.99818
C        -10.42347      -17.29438      -12.14800
C        -11.64539      -17.65675      -12.60914
C        -12.65954      -18.25059      -11.81287
N        -13.54357      -18.71836      -11.22328
C        -11.99928      -17.55461      -13.99213
N        -12.26023      -17.50796      -15.12194
H        -10.61137        0.86546        2.14550
H         -8.75297       -2.33617       -1.17956
H        -12.03864       -0.92427        3.09716
H        -10.27315       -4.12839       -0.33078
H        -12.67297       -5.98719        4.88659
H        -12.34209      -10.78386        3.16130
H        -10.09938      -10.03273        2.10346
H         -9.76474       -5.36100        3.75795
H         -7.62961       -4.51695        2.51585
H         -7.40980       -9.11751        0.53836
H        -10.29816       -8.65821       -0.41261
H         -7.64654      -11.22982        1.06356
H         -6.22096      -14.47010        1.36714
H         -6.25664      -12.85795        2.08903
H         -4.92860      -13.29332        0.99436
H         -6.02828      -14.52932       -1.25954
H         -7.30030      -13.93490       -3.29618
H         -9.72805      -11.73795       -5.29426
H         -9.62019      -14.37728       -3.69900
H         -9.40963      -13.07103       -7.38488
H        -12.80005      -17.33090       -7.51050
H        -12.01286      -18.74385       -9.21022
H         -9.29900      -17.95018       -8.85764
H         -6.01887      -16.39053      -12.41721
H         -9.38037      -14.36717      -16.38377
H         -4.92301      -15.08768      -14.29900
H        -10.44359      -15.61714      -14.59439
