110

C        -14.69425       -0.71156       -7.24828
C        -13.76957       -0.49657       -8.27529
F        -13.70132        0.70918       -8.85537
C        -12.91340       -1.50719       -8.68821
F        -12.03114       -1.29874       -9.67413
C        -12.94539       -2.74207       -8.06569
C        -13.83433       -2.95821       -7.00981
C        -14.75335       -1.95207       -6.58871
C        -15.65810       -2.21910       -5.51567
C        -15.61673       -3.44659       -4.85064
C        -14.64877       -4.35757       -5.28560
C        -13.78220       -4.16598       -6.34237
C        -14.57370       -5.52368       -4.42506
O        -13.74275       -6.40011       -4.55101
C        -15.60451       -5.33044       -3.36021
C        -16.33912       -4.07308       -3.69121
C        -17.50410       -3.62053       -3.13904
C        -18.18867       -4.30635       -2.09832
N        -18.72852       -4.86750       -1.23323
C        -18.14463       -2.42774       -3.57457
N        -18.66328       -1.44176       -3.92239
C        -15.67186       -6.18975       -2.33395
C        -14.91504       -7.42162       -2.15305
C        -15.46501       -8.66474       -2.22289
N        -16.83546       -8.95038       -2.59107
O        -17.34645       -9.96191       -2.09136
O        -17.39745       -8.20154       -3.40288
C        -14.54809       -9.70000       -1.82564
C        -13.37035       -9.12984       -1.54769
C        -13.46254       -7.67809       -1.81325
C        -12.38856       -6.84383       -1.75706
C        -12.36279       -5.39065       -1.88231
C        -11.11501       -4.96596       -1.61815
C        -10.25200       -6.11232       -1.41963
N         -8.79782       -5.98690       -1.41362
O         -8.34245       -4.86111       -1.66260
O         -8.09197       -6.96221       -1.14194
C        -10.95525       -7.25790       -1.55865
C        -10.44041       -8.56484       -1.85554
C         -9.59494       -9.28714       -1.11458
C         -9.16851      -10.61235       -1.52619
C         -9.03951      -10.96418       -2.86979
N         -9.13594      -10.28358       -4.06364
C         -8.98408      -11.16864       -5.08401
N         -8.73433      -12.36458       -4.62484
C         -8.73704      -12.26456       -3.24587
C         -8.51347      -13.22419       -2.24592
C         -8.59195      -12.87952       -0.88689
C         -8.91424      -11.56962       -0.55076
N         -8.91619      -11.55600        0.82224
C         -8.60775      -12.81168        1.25974
N         -8.41662      -13.63712        0.25698
C         -8.21216      -14.61150       -2.58377
C         -8.09874      -15.07168       -3.83754
C         -7.93509      -16.44249       -4.09876
S         -7.18376      -16.97623       -5.53035
C         -7.60994      -18.64135       -5.24539
C         -8.40854      -18.69074       -4.10804
C         -8.40079      -17.49153       -3.35853
C         -9.22400      -19.74322       -3.63226
N         -9.92652      -20.52419       -3.12402
C         -7.15571      -19.56882       -6.23757
C         -7.12434      -20.90776       -6.18364
C         -7.52239      -21.80539       -5.11547
C         -6.96418      -21.87149       -3.89688
C         -7.64363      -22.49330       -2.71258
O         -8.40350      -23.43471       -2.70163
C         -7.20375      -21.65297       -1.55899
C         -7.64048      -21.71180       -0.24982
C         -7.12397      -20.77024        0.65631
C         -6.28404      -19.70806        0.18947
C         -5.81397      -18.74739        1.09527
C         -6.08469      -18.88242        2.45199
C         -6.85000      -19.94319        2.91583
C         -7.39540      -20.86727        2.02812
F         -7.05506      -20.09879        4.23077
F         -5.56966      -17.99454        3.31385
C         -5.88304      -19.66268       -1.15492
C         -6.27175      -20.69326       -1.99019
C         -5.86606      -21.08159       -3.35733
C         -4.59380      -21.13236       -3.78953
C         -4.21355      -22.09781       -4.76917
N         -3.92061      -22.95921       -5.49320
C         -3.54020      -20.43095       -3.14205
N         -2.69021      -19.84442       -2.59868
H        -15.34303        0.11234       -6.96198
H        -12.25934       -3.51704       -8.39854
H        -16.34690       -1.42925       -5.22432
H        -13.05931       -4.93803       -6.59328
H        -16.42500       -6.07340       -1.55978
H        -14.80390      -10.74186       -1.69704
H        -12.53661       -9.67488       -1.13825
H        -13.16011       -4.74400       -2.19316
H        -10.74997       -3.95080       -1.67286
H        -10.88223       -8.98736       -2.75700
H         -9.22388       -8.91783       -0.16363
H         -9.30244       -9.29626       -4.17926
H         -9.05549      -10.89657       -6.12878
H         -9.09922      -10.75587        1.41015
H         -8.53836      -13.05912        2.31149
H         -8.09701      -15.27413       -1.72834
H         -8.21487      -14.44174       -4.70946
H         -8.90992      -17.36601       -2.40786
H         -6.76430      -19.12329       -7.15808
H         -6.77765      -21.42407       -7.08122
H         -8.40788      -22.40431       -5.33703
H         -8.34503      -22.48109        0.05388
H         -5.19971      -17.91147        0.76970
H         -7.99286      -21.68210        2.42847
H         -5.24159      -18.85905       -1.50946
