72

C         12.92356       -4.08673       -5.34528
S         11.27880       -4.20828       -4.93707
C         11.45876       -3.21134       -3.52046
C         12.78692       -2.82474       -3.38381
C         13.61627       -3.32136       -4.43984
C         15.00997       -3.07287       -4.57807
N         16.14682       -2.86852       -4.70626
C         13.30187       -2.01322       -2.31222
N         13.70585       -1.35612       -1.45054
C         10.26014       -2.98231       -2.77366
C         10.14831       -2.16879       -1.71058
C          8.89088       -1.96493       -0.99836
C          8.54725       -0.84805       -0.30010
O          7.31277       -0.73054        0.35522
C          6.50898       -1.81273        0.29050
C          6.86851       -2.97275       -0.41668
C          5.92678       -3.96486       -0.34714
S          4.57663       -3.45331        0.58995
C          5.28283       -1.91076        0.89365
O          8.03502       -3.07429       -1.08350
C          9.41091        0.30044       -0.09942
C          9.00885        1.56836        0.10686
C          9.94870        2.62426        0.36072
S         11.53437        2.55666       -0.29523
C         12.03375        4.05651        0.35934
C         10.99417        4.61599        1.09469
C          9.81210        3.78934        1.10240
S          8.33808        4.20734        2.00058
C          8.99567        5.31080        3.16972
O          9.03447        5.18794        4.37581
C          9.43813        6.50515        2.35609
O          8.80118        7.51722        2.15043
S         11.07956        6.18515        1.92517
C         13.38151        4.53257        0.08364
S         14.28221        5.49151        1.21379
C         15.62830        5.68169        0.17715
C         15.44587        4.97312       -0.97491
C         14.20753        4.32154       -0.98411
C         14.13059        3.56428       -2.19423
C         15.27188        3.66940       -3.00272
C         15.51171        2.95990       -4.29782
S         16.51421        4.75425       -2.41312
C         16.77719        6.43135        0.52313
C         16.91921        7.73241        0.22608
C         18.05695        8.52971        0.62135
C         17.92131        9.83484        0.34544
C         16.65891       10.17562       -0.29197
S         15.74828        8.70451       -0.63204
C         16.20584       11.41614       -0.56062
C         16.90299       12.66309       -0.29351
C         16.20052       13.76065       -0.60878
C         14.89520       13.46758       -1.14069
S         14.61987       11.75554       -1.26610
C         13.98202       14.37371       -1.49786
H         13.30347       -4.58396       -6.22971
H          9.36209       -3.49286       -3.12297
H         10.99141       -1.60348       -1.33821
H          5.95583       -4.95146       -0.78783
H          4.76627       -1.17527        1.49376
H         10.47188        0.06832       -0.08363
H          7.94701        1.81015        0.10084
H         13.30228        2.92972       -2.48253
H         16.57738        2.90019       -4.54128
H         14.99827        3.47733       -5.11422
H         15.12895        1.93485       -4.24563
H         17.54712        5.91506        1.08943
H         18.91994        8.10833        1.11930
H         18.67086       10.56844        0.60515
H         17.89868       12.70833        0.12303
H         16.56172       14.77105       -0.47782
H         14.17180       15.43743       -1.41124
H         13.01195       14.07391       -1.88332
