83

C         -6.46641       -0.91724       -5.36201
O         -7.47226       -1.19484       -4.49012
C         -7.14033       -0.61186       -3.30959
C         -5.93446        0.03957       -3.41523
C         -5.49290       -0.16227       -4.74524
C         -4.30541        0.30427       -5.37352
C         -3.33053        1.00633       -4.77065
C         -2.18106        1.47093       -5.50943
C         -1.00490        1.82130       -4.96209
C          0.09337        2.27283       -5.77049
S         -0.23112        3.18497       -7.22083
C          1.39811        3.31410       -7.58716
N          1.78527        4.01207       -8.76501
O          2.50105        5.00706       -8.60138
O          1.40398        3.54695       -9.84598
C          2.22515        2.75493       -6.65124
C          1.47814        2.14646       -5.58444
C          2.08019        1.49223       -4.44484
C          3.40143        1.32245       -4.23288
C          3.95656        0.75401       -3.03332
S          3.05221       -0.34885       -2.05139
C          4.30092       -0.50719       -0.92648
N          4.13702       -1.33118        0.23844
O          5.11971       -1.42059        0.98717
O          3.04540       -1.88525        0.41703
C          5.41942        0.21401       -1.26055
C          5.23064        0.93096       -2.48128
C          6.21590        1.80997       -3.03918
C          7.55332        1.67663       -2.94784
C          8.46710        2.63328       -3.50160
S          7.87190        4.06979       -4.30184
C          9.44762        4.60100       -4.46089
C         10.42982        3.76093       -4.03973
C          9.86627        2.57897       -3.48194
S         11.90497        4.60232       -4.36632
C         11.17897        6.06585       -4.93469
C         11.43907        7.39292       -5.36565
C         10.24313        8.06089       -5.60783
S          8.82688        7.08273       -5.39922
C          9.83824        5.82747       -4.92271
C         10.04893        9.41183       -5.98219
C          9.97844        9.72984       -7.28148
C          9.73000       11.08157       -7.72334
C          9.64230       11.50749       -8.99165
C          9.44641       12.88552       -9.49511
C          8.78498       13.89467       -8.87296
C          8.19058       13.75555       -7.58275
N          7.71564       13.64457       -6.52627
C          8.57587       15.17101       -9.48178
N          8.41206       16.20796       -9.96491
C          9.95405       12.89056      -10.90037
C         10.16797       11.56216      -11.29886
C          9.93000       10.63968      -10.18646
O          9.99768        9.43073      -10.26649
C         10.60886       11.19483      -12.56010
C         10.88063       12.21204      -13.46656
C         10.73312       13.56152      -13.09059
C         10.25596       13.89804      -11.80589
C         11.03892       14.64716      -14.08405
H         -6.59389       -1.32025       -6.35776
H         -7.84843       -0.74454       -2.50462
H         -5.44232        0.59023       -2.62706
H         -4.18432        0.04913       -6.42647
H         -3.39109        1.26320       -3.71650
H         -2.33006        1.52336       -6.58641
H         -0.85543        1.72052       -3.89002
H          3.30414        2.78627       -6.73356
H          1.38580        1.14046       -3.68657
H          4.11779        1.66678       -4.97393
H          6.31565        0.24813       -0.65031
H          5.79865        2.66480       -3.56405
H          7.98841        0.82599       -2.42797
H         10.44452        1.76870       -3.05498
H         12.41827        7.84256       -5.45907
H          9.92400       10.14859       -5.19435
H         10.08350        8.94255       -8.02506
H          9.63288       11.78723       -6.90326
H         10.75205       10.15008      -12.81935
H         11.22967       11.95395      -14.46535
H         10.15662       14.94988      -11.55681
H         11.79509       14.31557      -14.80388
H         11.43896       15.53232      -13.57903
H         10.13025       14.92340      -14.62701
