82

C         -1.11808       23.43942        8.39796
O         -1.95073       24.44527        8.02014
C         -2.22331       24.25514        6.70360
C         -1.57548       23.13611        6.23251
C         -0.86319       22.60126        7.33401
C         -0.03122       21.44898        7.39791
C         -0.11152       20.39835        6.56870
C          0.75374       19.24636        6.68576
C          0.68235       18.19018        5.86330
C          1.56885       17.05240        6.00460
C          1.63413       15.96122        5.23151
C          2.57188       14.89172        5.48419
C          2.42003       13.84101        4.67088
C          1.32754       13.98190        3.71966
S          0.65335       15.61068        3.82967
C          0.85547       12.99823        2.93018
C          1.31085       11.61889        2.95069
C          0.60636       10.79451        2.16478
C         -0.43610       11.45703        1.41916
S         -0.46656       13.17173        1.78037
C         -1.26602       10.81860        0.57767
C         -2.26660       11.44359       -0.26534
C         -3.59262       11.14478       -0.28817
O         -4.48508       11.84316       -1.12376
C         -3.95010       12.85019       -1.84931
C         -2.57260       13.12596       -1.84609
C         -2.22483       14.18586       -2.64167
S         -3.62091       14.86621       -3.38316
C         -4.66566       13.71713       -2.63426
O         -1.70251       12.41299       -1.10608
C         -4.23477       10.13593        0.54778
C         -5.54395        9.84084        0.53444
C         -6.13307        8.83965        1.40394
C         -7.19899        9.02729        2.20090
C         -7.81255        7.99153        2.99646
C         -8.97547        8.36329        3.55405
C         -9.36470        9.72597        3.23778
S         -8.03854       10.54357        2.40545
C        -10.58527       10.26837        3.40567
C        -11.77800        9.58449        3.87725
C        -12.91519       10.20534        3.52647
C        -12.69352       11.41558        2.75226
S        -11.01695       11.88518        2.86581
C        -13.63279       11.97047        1.96614
C        -13.40566       13.03254        1.02952
O        -12.37951       13.94849        1.14462
C        -12.35942       14.80237        0.07523
C        -13.42495       14.46004       -0.72798
C        -14.11517       13.36190       -0.13150
C        -15.33283       12.77168       -0.71740
F        -15.82971       11.72246       -0.01891
F        -16.32846       13.69233       -0.80108
F        -15.11369       12.33122       -1.98652
C        -11.40190       15.83980       -0.07873
C        -11.07911       16.31724       -1.28615
H         -0.81515       23.45213        9.43573
H         -2.87830       24.98672        6.25232
H         -1.61257       22.76390        5.21863
H          0.70852       21.43091        8.19792
H         -0.85879       20.37799        5.77787
H          1.49037       19.26520        7.48646
H         -0.05210       18.16744        5.06033
H          2.25074       17.11010        6.85331
H          3.31861       14.94326        6.26588
H          3.05198       12.96844        4.72543
H          2.11822       11.27056        3.57717
H          0.79400        9.73182        2.08899
H         -1.18389        9.74076        0.46204
H         -1.24177       14.60096       -2.81088
H         -5.73212       13.75121       -2.79988
H         -3.59618        9.61568        1.25826
H         -6.23070       10.35471       -0.13611
H         -5.67848        7.85326        1.34742
H         -7.38361        7.00570        3.09952
H         -9.58110        7.69791        4.15538
H        -11.75728        8.62830        4.37894
H        -13.90200        9.80240        3.71456
H        -14.61957       11.51748        1.96146
H        -13.70552       14.96131       -1.64543
H        -10.93276       16.23418        0.81732
H        -11.49721       15.91751       -2.20398
H        -10.35499       17.12138       -1.38717
