75

O          0.12201        2.64992       -8.15862
C         -0.06075        3.61280       -7.19805
N         -0.43191        3.10788       -6.03060
C         -0.53379        1.74987       -6.25202
C         -0.18863        1.47620       -7.55102
C         -0.95075        0.79572       -5.25216
O         -1.19291       -0.38275       -5.49443
C          0.11744        5.02393       -7.42261
O         -0.09650        5.91986       -6.40447
C          0.15114        7.19705       -6.83176
C          0.50897        7.11242       -8.16613
C          0.49344        5.73255       -8.55707
C          0.84191        5.25355       -9.91783
F          0.65705        3.93264      -10.13023
F          0.10575        5.89747      -10.86249
F          2.14414        5.51464      -10.20588
C          0.07192        8.34797       -6.00109
C         -0.36807        8.26429       -4.73529
C         -0.34310        9.41408       -3.89378
O          0.58511       10.41202       -4.06649
C          0.45569       11.37453       -3.09589
C         -0.61189       11.00280       -2.30624
C         -1.12962        9.76116       -2.79769
C         -2.28858        9.03586       -2.21863
F         -2.62890        7.91578       -2.90030
F         -2.04526        8.65742       -0.93695
F         -3.39536        9.82436       -2.18458
C          1.30664       12.50984       -2.99168
C          2.31238       12.68280       -3.86489
C          3.22541       13.83637       -3.81924
C          4.38838       13.69828       -3.04298
C          5.33235       14.72203       -2.97669
C          5.06043       15.90373       -3.68243
C          3.89906       16.10654       -4.47170
C          2.97569       15.03257       -4.54861
C          1.83790       15.19219       -5.36414
C          1.58346       16.38117       -6.04449
C          2.46222       17.46017       -5.95212
C          3.64442       17.33755       -5.18363
C          4.50673       18.46825       -5.17515
C          4.20885       19.64804       -5.86335
C          3.03061       19.74559       -6.58361
C          2.16452       18.65631       -6.62956
C          6.58128       14.51224       -2.20860
C          7.55790       15.42255       -2.05022
C          8.74399       15.12058       -1.32435
S         10.10143       14.47044       -2.16452
C         11.06531       14.45256       -0.75382
C         10.38727       14.94575        0.33501
C          9.05229       15.33236        0.00946
S          7.92531       16.01991        1.18665
C          8.65886       15.47910        2.66342
O          8.17740       14.75714        3.51276
C         10.00572       16.16463        2.71687
O         10.26129       17.21231        3.27430
S         11.11367       15.07943        1.93475
H         -0.11790        0.58053       -8.15113
H         -1.04180        1.20106       -4.23055
H          0.77025        7.95126       -8.79919
H          0.39952        9.29875       -6.41429
H         -0.71402        7.31950       -4.32305
H         -0.98897       11.55557       -1.45317
H          1.12452       13.22644       -2.19611
H          2.50562       11.97335       -4.66553
H          4.55738       12.76705       -2.50389
H          5.78736       16.70385       -3.63047
H          1.12280       14.38044       -5.48431
H          0.68453       16.45085       -6.65336
H          5.44326       18.45571       -4.62591
H          4.90046       20.48614       -5.82888
H          2.78547       20.66286       -7.11187
H          1.24430       18.74980       -7.20252
H          6.69670       13.52279       -1.76788
H          7.49759       16.42246       -2.46177
H         12.08488       14.09214       -0.80197
