95

C         -5.49194       -2.71777        8.41039
C         -4.49447       -2.89918        7.50865
C         -3.36964       -3.73641        7.76570
N         -2.46062       -4.41706        7.99694
C         -4.46690       -2.27991        6.22571
N         -4.40526       -1.76733        5.18669
C         -5.61914       -3.42535        9.72923
C         -6.89245       -3.18207       10.24374
C         -7.37714       -3.71232       11.43617
C         -6.50096       -4.50518       12.20510
C         -5.19803       -4.71326       11.73154
C         -4.74306       -4.19231       10.49170
S         -4.27025       -5.64384       12.85367
C         -5.57684       -5.78580       13.91244
C         -6.70898       -5.15765       13.46722
Br        -5.47938       -6.69787       15.54520
C         -7.62178       -2.22663        9.40687
O         -8.72605       -1.79825        9.67081
C         -6.70602       -1.87148        8.27156
C         -7.01239       -0.88988        7.40733
C         -8.22922       -0.08908        7.42929
C         -9.17239       -0.10921        6.47684
C        -10.39527        0.65893        6.47890
C        -11.21518        0.38108        5.45121
C        -10.70470       -0.64773        4.56608
S         -9.08157       -1.13290        5.08077
C        -11.31337       -1.20654        3.50422
C        -12.60474       -0.90134        2.92179
C        -12.90087       -1.64243        1.83782
C        -11.87453       -2.60955        1.49118
S        -10.55926       -2.50804        2.61560
C        -11.90984       -3.46304        0.45353
C        -10.90703       -4.48114        0.08185
N        -11.15433       -5.17332       -1.04086
C        -10.26193       -6.13555       -1.34536
C         -9.16238       -6.43577       -0.57727
C         -8.98396       -5.66992        0.55099
N         -9.84397       -4.69462        0.87937
C         -7.86317       -5.93376        1.46915
C         -7.31992       -5.03942        2.31622
C         -6.24702       -5.43293        3.17711
S         -6.65562       -5.90369        4.78674
C         -5.05069       -6.37968        5.19466
C         -4.17895       -6.08518        4.15779
C         -4.87381       -5.51321        2.99145
C         -4.20591       -5.11512        1.80600
C         -4.77227       -4.49025        0.56707
C         -2.81533       -5.38022        1.86897
C         -2.14643       -5.93686        2.99368
C         -2.77914       -6.31112        4.20461
C         -1.93939       -6.85353        5.32193
C         -4.85145       -6.93981        6.48944
C         -4.87260       -8.26779        6.68194
C         -4.59314       -8.88213        7.95799
C         -3.51772       -9.84702        8.23620
C         -3.52597      -10.23143        9.53338
C         -4.63044       -9.50292       10.13198
C         -5.26547       -8.67610        9.11001
N         -6.33186       -7.93337        9.51541
C         -6.74653       -8.00557       10.82321
N         -6.20842       -8.71315       11.77336
C         -5.11106       -9.47405       11.38696
C         -2.58318      -11.15444       10.10464
C         -2.93264      -12.29285       10.71681
H         -8.38610       -3.48852       11.77258
H         -3.71623       -4.38855       10.21038
H         -7.64475       -5.14281       14.01278
H         -6.35481       -0.61675        6.58733
H         -8.37037        0.53202        8.31053
H        -10.62313        1.37887        7.25205
H        -12.17666        0.85401        5.31097
H        -13.25909       -0.13578        3.31457
H        -13.81542       -1.53974        1.27070
H        -12.76215       -3.44468       -0.21899
H        -10.46915       -6.68398       -2.26022
H         -8.47423       -7.22513       -0.85513
H         -7.47210       -6.94712        1.44198
H         -7.67883       -4.01469        2.37378
H         -5.30171       -5.23941       -0.02757
H         -3.97684       -4.06823       -0.05835
H         -5.44355       -3.66424        0.81645
H         -2.19660       -5.13466        1.00327
H         -1.06650       -6.07231        2.90469
H         -0.88532       -6.92679        5.03145
H         -2.26286       -7.85699        5.60553
H         -1.98567       -6.19011        6.18539
H         -4.64461       -6.26894        7.31527
H         -5.03273       -8.95000        5.84933
H         -2.82484      -10.18292        7.47836
H         -6.85051       -7.41947        8.81756
H         -7.62632       -7.37609       11.03336
H         -4.65284      -10.06685       12.17289
H         -1.53020      -10.89726       10.01060
H         -3.97015      -12.59988       10.81015
H         -2.17656      -12.95587       11.12559
