108

C         -2.81275       -1.20567        1.23042
C         -2.95053       -2.41250        0.63329
C         -2.05512       -3.50226        0.85755
N         -1.32350       -4.38861        1.03295
C         -4.04568       -2.70922       -0.23358
N         -4.93669       -2.94721       -0.93633
C         -1.80287       -0.83778        2.26838
C         -2.25108        0.30721        2.93356
C         -1.54363        0.95111        3.94217
C         -0.29017        0.41495        4.30931
C          0.16843       -0.73742        3.65220
C         -0.57155       -1.37772        2.62413
S          1.71065       -1.22589        4.26208
C          1.76337        0.06542        5.34736
C          0.66273        0.87658        5.28111
Br         3.19048        0.35886        6.52487
C         -3.52305        0.77830        2.36662
O         -4.22707        1.64030        2.84662
C         -3.73425       -0.04243        1.12736
C         -4.46807        0.38427        0.08423
C         -5.23820        1.63772        0.01579
C         -4.66840        2.80558       -0.52626
C         -5.44923        3.95739       -0.60431
C         -6.78793        3.94756       -0.15454
C         -7.35302        2.80007        0.37836
C         -6.57218        1.64447        0.46470
C         -7.35222        5.27179       -0.29291
C         -6.37049        6.15278       -0.79030
C         -5.09842        5.35888       -1.13658
C         -3.83643        5.97280       -0.47532
C         -3.87408        6.09866        1.04521
C         -4.89482        5.33935       -2.68214
C         -6.01883        4.70627       -3.50541
C         -6.61523        7.52303       -0.88505
C         -7.87667        8.01277       -0.51141
C         -8.86785        7.10293       -0.07825
C         -8.61413        5.73316        0.02612
C         -8.11229        9.46804       -0.42878
C         -9.32041       10.02872       -0.60191
C         -9.61684       11.40459       -0.24952
C        -10.60717       11.75877        0.58755
C        -10.85328       13.09810        1.07055
C        -11.64474       13.13643        2.15585
C        -12.06814       11.81998        2.60927
S        -11.68306       10.62454        1.37126
C        -12.52770       11.49209        3.83250
C        -12.70456       12.38372        4.96525
C        -12.70744       11.74436        6.14705
C        -12.53343       10.30973        6.01891
S        -12.77753        9.82493        4.35825
C        -12.14176        9.49748        7.01601
C        -11.79406        8.12654        6.80702
S        -12.90559        6.88556        7.17335
C        -11.89081        5.62031        6.55878
C        -10.68268        6.17361        6.13646
C        -10.59207        7.59508        6.37446
O         -9.52894        8.44535        6.24351
C         -8.36963        7.96333        5.55614
S         -7.77276        6.34871        6.07901
S         -9.36216        5.29499        5.35018
C        -12.38534        4.21066        6.60169
C        -11.57786        3.09202        6.96554
C        -12.07508        1.73866        6.91889
N        -11.28654        0.67579        7.14896
C         -9.97982        0.90542        7.43450
C         -9.49483        2.18440        7.55667
N        -10.29690        3.26846        7.36074
C         -8.12216        2.46127        7.85919
N         -7.00226        2.64133        8.10971
C         -9.15339       -0.25870        7.56509
N         -8.47012       -1.19248        7.65681
C        -13.39011        1.42702        6.62583
C        -14.24759        2.49288        6.30874
C        -13.74634        3.90945        6.26303
N        -14.71604        4.75502        5.86988
S        -16.10951        3.88559        5.68278
N        -15.54993        2.36417        6.01889
H         -1.93763        1.85098        4.40747
H         -0.14109       -2.24739        2.14001
H          0.52428        1.75982        5.89351
H         -4.51451       -0.17143       -0.84753
H         -3.64063        2.81246       -0.87424
H         -8.37500        2.79498        0.74103
H         -7.01037        0.74724        0.89606
H         -3.66285        6.97641       -0.88748
H         -2.95246        5.37984       -0.74397
H         -4.72594        6.69411        1.38574
H         -2.96531        6.60036        1.39535
H         -3.91795        5.11851        1.52791
H         -3.96619        4.80623       -2.92476
H         -4.76079        6.36906       -3.04059
H         -6.06679        3.62435       -3.34792
H         -5.83776        4.87351       -4.57244
H         -6.99727        5.13544       -3.27171
H         -5.83231        8.19958       -1.21421
H         -9.84742        7.45963        0.23340
H         -9.38798        5.06278        0.38255
H         -7.26659       10.06327       -0.09192
H        -10.17316        9.42338       -0.90334
H         -8.93241       12.15820       -0.62962
H        -10.39444       13.96975        0.62505
H        -11.88931       14.04937        2.67969
H        -12.76033       13.45911        4.87100
H        -12.76325       12.24320        7.10474
H        -11.95978        9.90145        8.00646
H         -7.56961        8.68504        5.75188
H         -8.55118        7.98468        4.47604
H        -13.74964        0.40351        6.62890
