92

C         -2.54164        0.50529       -2.41290
C         -1.64889        1.55146       -2.22480
C         -1.53347        2.14439       -0.94375
C         -0.60840        3.23316       -0.77986
N          0.14031        4.10756       -0.66746
C         -2.29698        1.67272        0.14842
C         -2.16459        2.23522        1.46291
N         -2.06661        2.67246        2.53193
C         -3.19381        0.61923       -0.03745
C         -3.29276        0.07579       -1.30873
C         -4.13249       -1.06242       -1.68048
O         -5.08837       -1.45290       -1.04705
C         -3.60185       -1.53698       -2.99997
C         -2.87865       -0.37806       -3.57273
C         -2.71556       -0.09627       -4.88871
C         -2.12138        1.11761       -5.33216
N         -1.64335        2.11858       -5.66886
C         -3.19838       -0.95340       -5.91973
N         -3.58693       -1.66831       -6.75073
C         -3.61055       -2.81159       -3.42769
C         -4.10170       -3.91839       -2.67129
C         -4.13821       -4.12747       -1.29061
C         -4.67324       -5.37891       -0.96062
C         -4.96865       -6.10947       -2.08414
S         -4.67513       -5.33405       -3.52135
C         -5.42480       -7.37759       -1.67957
C         -5.40391       -7.44972       -0.30577
C         -4.96850       -6.16148        0.23349
C         -4.89479       -5.76635        1.51954
C         -5.22695       -6.64657        2.58040
N         -5.48521       -7.36919        3.45033
C         -4.48482       -4.45307        1.88501
N         -4.12997       -3.38864        2.18365
C         -5.79887       -8.72731        0.14665
C         -6.10767       -9.58021       -0.92387
S         -5.99876       -8.72927       -2.43687
C         -6.52816      -10.97672       -0.85682
C         -6.33564      -12.06774       -1.72466
C         -5.66123      -12.04036       -3.03531
O         -5.98200      -12.76347       -3.96850
O         -4.62842      -11.17402       -3.18145
C         -6.97309      -13.26926       -1.18209
C         -7.68448      -13.00828       -0.03187
S         -7.49711      -11.41832        0.50427
C         -6.89612      -14.70587       -1.66459
C         -7.91063      -15.64469       -1.45905
C         -7.48693      -16.93730       -1.82781
C         -6.20676      -16.92081       -2.33734
S         -5.48697      -15.42335       -2.36771
C         -5.84990      -18.23328       -2.71133
C         -6.90390      -19.07389       -2.43858
C         -7.96963      -18.31703       -1.78501
C         -9.05943      -18.80073       -1.15593
C         -9.23185      -20.20206       -0.97696
N         -9.30122      -21.35118       -0.82462
C        -10.01808      -17.94245       -0.55265
N        -10.79877      -17.23120       -0.07134
C         -6.68244      -20.36694       -2.95305
C         -5.39819      -20.48592       -3.49412
S         -4.53984      -18.96665       -3.41569
C         -4.76187      -21.58048       -4.14683
C         -4.97855      -22.87344       -3.86964
C         -4.63524      -23.84597       -4.95606
O         -3.86071      -23.70828       -5.87810
C         -5.53084      -24.99426       -4.74252
C         -5.70151      -26.05936       -5.61332
C         -6.65240      -27.03098       -5.28036
C         -7.41041      -26.89756       -4.09498
C         -7.22067      -25.79152       -3.23719
C         -6.26275      -24.83646       -3.55202
C         -5.78091      -23.59710       -2.87269
C         -5.86744      -23.32364       -1.54632
C         -5.08478      -22.30562       -0.92204
N         -4.43958      -21.49856       -0.39321
C         -6.68473      -24.07688       -0.65782
N         -7.36329      -24.70126        0.04580
C         -8.39129      -27.88180       -3.72936
N         -9.18365      -28.66802       -3.41633
C         -6.83960      -28.13612       -6.16633
N         -6.97734      -29.02911       -6.90318
H         -1.01590        1.91991       -3.02947
H         -3.78139        0.20839        0.78257
H         -3.14202       -3.07657       -4.37280
H         -3.79193       -3.39986       -0.57109
H         -5.85656       -9.03442        1.18528
H         -4.54662      -10.53682       -2.45136
H         -8.24910      -13.70375        0.57524
H         -8.87935      -15.38901       -1.04796
H         -7.40762      -21.17109       -2.96509
H         -4.13810      -21.32681       -5.00702
H         -5.11862      -26.11905       -6.53100
H         -7.84155      -25.71406       -2.34765
