105

C        -14.22292       -9.97680       10.67687
C        -15.19350       -9.45452       11.51830
C        -16.56036       -9.61800       11.18456
C        -17.54663       -9.07477       12.07595
N        -18.32920       -8.63454       12.80716
C        -16.94789      -10.28773       10.00070
C        -18.32624      -10.41936        9.61965
N        -19.42940      -10.52836        9.28058
C        -15.97278      -10.81977        9.15638
C        -14.64762      -10.65517        9.52473
C        -13.49075      -11.08925        8.74333
O        -13.50940      -11.96934        7.91177
C        -12.34124      -10.29351        9.27736
C        -12.72832       -9.92951       10.65749
C        -11.90109       -9.77447       11.71882
C        -12.39959       -9.60161       13.04144
N        -12.84020       -9.47637       14.10501
C        -10.48481       -9.86785       11.59774
N         -9.33037       -9.93384       11.48693
C        -11.32463       -9.82853        8.53343
C        -11.22183      -10.01437        7.12106
C        -12.21261      -10.06046        6.13577
C        -11.66876      -10.19872        4.84499
C        -10.29353      -10.22268        4.89026
S         -9.63487      -10.13612        6.41008
C         -9.79521      -10.34594        3.57757
C        -10.84650      -10.41397        2.68645
C        -12.20092      -10.32621        3.40822
C        -13.00077       -9.08990        2.99166
C        -13.01981      -11.60656        3.22494
C        -10.38319      -10.59901        1.36266
C         -8.99012      -10.67270        1.32206
S         -8.29054      -10.45098        2.90035
C         -8.15409      -10.91916        0.16931
C         -8.43323      -11.67065       -0.95347
C         -7.36884      -11.62535       -1.93179
N         -7.43586      -12.25169       -3.13990
C         -8.61021      -12.92135       -3.31238
C         -8.78140      -13.56111       -4.63850
O         -7.96247      -13.45433       -5.54267
C        -10.00614      -14.34855       -4.87023
C        -10.94759      -14.47232       -3.93488
C        -10.83036      -13.81560       -2.61813
O        -11.72582      -13.96268       -1.79577
C         -9.61984      -13.00232       -2.35128
N         -9.58885      -12.37620       -1.13268
C         -6.28053      -10.89011       -1.50954
S         -6.57865      -10.23572        0.04916
C         -5.03689      -10.60450       -2.18784
C         -3.79107      -10.35354       -1.60930
C         -2.83099      -10.01621       -2.58941
C         -3.37552      -10.04533       -3.85512
S         -4.97662      -10.46019       -3.91911
C         -2.41848       -9.59033       -4.78579
C         -1.26488       -9.23763       -4.11940
C         -1.36763       -9.54828       -2.61520
C         -0.41626      -10.67842       -2.21030
C         -1.15884       -8.30680       -1.74982
C         -0.33904       -8.62739       -4.99692
C         -0.84181       -8.53753       -6.29866
S         -2.37662       -9.36382       -6.42499
C         -0.19497       -7.97726       -7.43954
C         -0.78621       -7.38266       -8.48661
C          0.04033       -7.24502       -9.73057
O          1.24766       -7.23130       -9.83595
C         -0.92862       -7.22483      -10.84092
C         -0.62431       -7.29930      -12.19108
C         -1.68747       -7.39541      -13.09729
C         -3.01855       -7.44168      -12.62308
C         -3.29466       -7.35360      -11.24017
C         -2.24264       -7.21216      -10.34439
C         -2.16649       -7.04584       -8.86523
C         -3.09010       -6.41283       -8.09904
C         -2.79905       -5.97172       -6.77273
N         -2.55924       -5.56684       -5.71162
C         -4.36358       -6.02659       -8.60364
N         -5.39473       -5.71956       -9.04572
C         -4.12294       -7.59017      -13.53086
N         -5.02302       -7.71836      -14.24991
C         -1.38827       -7.46101      -14.50055
N         -1.12532       -7.50554      -15.62849
H        -14.93578       -8.90224       12.41969
H        -16.22506      -11.32195        8.22373
H        -10.56329       -9.18772        8.97296
H        -13.27438      -10.00479        6.33334
H        -12.42315       -8.16752        3.12634
H        -13.91541       -8.99085        3.58875
H        -13.29316       -9.14264        1.93674
H        -12.45011      -12.49586        3.52082
H        -13.31541      -11.74121        2.17809
H        -13.93143      -11.58566        3.83330
H        -11.02050      -10.70703        0.49237
H        -10.09578      -14.81974       -5.84338
H        -11.84597      -15.05716       -4.10197
H         -3.60049      -10.37172       -0.54283
H         -0.56296      -11.57401       -2.82690
H         -0.57371      -10.97388       -1.16645
H          0.63041      -10.37358       -2.32185
H         -1.84616       -7.49922       -2.02838
H         -0.13815       -7.92143       -1.84955
H         -1.33162       -8.53229       -0.69082
H          0.62336       -8.22780       -4.69970
H          0.88653       -8.11915       -7.46761
H          0.41334       -7.30067      -12.51996
H         -4.32822       -7.41523      -10.90403
