121

C          5.24018        5.70362       -8.47332
C          5.91153        6.34791       -9.51635
C          7.19299        6.85436       -9.31886
C          7.81824        6.70328       -8.08300
C          7.17971        6.02093       -7.03917
C          7.87928        5.74914       -5.85544
C          7.30873        4.89752       -4.92124
C          5.96789        4.51285       -5.06038
C          5.22245        4.82023       -6.18745
C          5.85702        5.52461       -7.22550
C          5.57523        3.62463       -3.94547
O          4.46230        3.19452       -3.72372
C          6.83672        3.36255       -3.16163
C          7.93234        4.00350       -3.89711
C          9.06334        3.37306       -4.28448
C          9.11399        1.95405       -4.36093
N          9.12458        0.79582       -4.45935
C         10.19691        4.07601       -4.76166
N         11.12077        4.67962       -5.11525
C          6.76944        2.72308       -1.98289
C          7.79988        2.43192       -1.02845
C          7.62649        2.28509        0.34228
C          8.80329        1.82431        1.05893
C          9.01055        1.73930        2.52965
C          7.96765        2.05033        3.44892
C          8.22551        2.12596        4.82602
C          9.50442        1.91211        5.32085
C         10.53871        1.60608        4.44749
C         10.30862        1.51464        3.06659
O         11.36233        1.32052        2.20432
C         12.40004        0.45954        2.66499
O          6.68295        2.21027        2.98592
C          5.87494        3.17913        3.65084
C          9.60682        1.20724        0.09304
S          9.48379        2.19471       -1.31429
C          9.96814       -0.18873       -0.07462
C         11.06273       -0.88181       -0.56920
C         10.67244       -2.20498       -1.06958
N         11.52908       -3.06443       -1.69051
C         12.81521       -2.62004       -1.65080
C         13.82549       -3.58216       -2.16079
O         13.54977       -4.54404       -2.86621
C         15.22706       -3.37507       -1.75714
C         15.60960       -2.25615       -1.14286
C         14.66087       -1.15588       -0.85442
O         15.09522       -0.12400       -0.35732
C         13.21056       -1.39313       -1.10525
N         12.35147       -0.42167       -0.62775
C          9.33495       -2.47198       -0.86734
S          8.70706       -1.31528        0.24740
C          8.44475       -3.49649       -1.35969
C          7.07812       -3.35318       -1.44686
C          6.35242       -4.46829       -1.99074
C          4.85251       -4.44459       -2.04048
C          4.17371       -3.20361       -2.29978
C          2.79253       -3.07447       -2.08296
C          2.05290       -4.14347       -1.61044
C          2.67800       -5.36311       -1.38988
C          4.05961       -5.53587       -1.60528
O          4.67662       -6.73472       -1.35475
C          3.85799       -7.84162       -0.99773
O          4.89828       -2.13773       -2.79688
C          4.39533       -0.82751       -2.52621
C          7.25543       -5.48753       -2.31612
S          8.89675       -5.03130       -1.91375
C          7.10754       -6.82841       -2.79255
C          7.23367       -7.21678       -4.07160
C          7.02340       -8.56776       -4.66685
C          7.17571       -9.77853       -4.07453
C          6.96775      -11.01426       -4.74868
N          6.77693      -12.03100       -5.29201
C          7.60672       -9.93645       -2.72738
N          7.95911      -10.11640       -1.63317
C          6.78370       -8.34858       -6.12669
C          7.08432       -7.01659       -6.43069
C          7.01082       -6.48742       -7.71091
C          6.61314       -7.32847       -8.75609
C          6.52671       -6.85456      -10.07316
C          6.14053       -7.70353      -11.11173
C          5.83454       -9.03507      -10.84697
C          5.90370       -9.52112       -9.54056
C          6.28867       -8.68437       -8.48130
C          6.36161       -9.17722       -7.16116
C          7.45089       -6.27068       -5.21893
O          7.85427       -5.12745       -5.21423
H          4.24568        5.30405       -8.66099
H          5.43817        6.44382      -10.49054
H          7.71768        7.34836      -10.13300
H          8.83243        7.08075       -7.96024
H          8.89700        6.11206       -5.74559
H          4.21340        4.43190       -6.29643
H          5.77479        2.39763       -1.66814
H          6.67005        2.50550        0.79403
H          7.43751        2.34791        5.53789
H          9.69787        1.99308        6.38685
H         11.53366        1.48359        4.86280
H         11.99440       -0.46219        3.09698
H         13.05206        0.97666        3.37425
H         13.01934        0.18206        1.80944
H          6.40253        4.13067        3.77909
H          5.51023        2.79547        4.60796
H          4.99812        3.36670        3.02204
H         15.91991       -4.17806       -1.98873
H         16.63922       -2.10412       -0.83472
H          6.58331       -2.44701       -1.12326
H          2.26455       -2.14452       -2.26554
H          0.98986       -4.02874       -1.41550
H          2.05035       -6.16423       -1.01432
H          4.47929       -8.74097       -1.01580
H          3.04507       -7.99766       -1.71616
H          3.47275       -7.71345        0.01855
H          3.49951       -0.61302       -3.11820
H          5.15839       -0.10157       -2.82262
H          4.20077       -0.68712       -1.45615
H          6.89299       -7.54634       -2.00956
H          7.25929       -5.44242       -7.87837
H          6.76280       -5.81736      -10.30278
H          6.08230       -7.32422      -12.12879
H          5.54300       -9.69798      -11.65780
H          5.66176      -10.56705       -9.35990
H          6.07636      -10.20966       -6.99332
