101

C          0.37882        2.75494        0.02896
C          0.75542        2.10369       -1.09886
C          2.10931        2.04005       -1.54525
N          3.20769        1.98547       -1.91421
C         -0.15068        1.37992       -1.92189
N         -0.90661        0.79161       -2.58598
C          1.29303        3.41794        1.01506
C          0.57574        3.65010        2.19054
C          1.11078        4.24024        3.33036
C          2.46313        4.64038        3.29308
C          3.19355        4.42922        2.11427
C          2.62485        3.82539        0.96039
S          4.81807        4.99876        2.28524
C          4.54268        5.50855        3.87089
C          3.26532        5.27378        4.30251
Br         5.85511        6.31783        4.93465
C         -0.82380        3.22817        2.04989
O         -1.64081        3.22461        2.94616
C         -0.98834        2.81431        0.61579
C         -2.18413        2.68801        0.01643
C         -3.44046        2.87705        0.65751
C         -4.27489        1.93425        1.26377
C         -5.52103        2.50331        1.61122
C         -5.58643        3.82583        1.23681
S         -4.19316        4.44495        0.58192
C         -6.89847        4.29387        1.44663
C         -7.65941        3.28164        1.97884
C         -6.81489        2.10122        2.17192
C         -7.13516        0.93847        2.76890
C         -6.18607       -0.10976        2.90855
N         -5.41009       -0.96724        3.01735
C         -8.42386        0.71309        3.33451
N         -9.46830        0.53629        3.80452
C         -9.01205        3.66872        2.11199
C         -9.22883        4.97918        1.66010
S         -7.73250        5.67244        1.07628
C        -10.49392        5.75719        1.57112
C        -10.59404        7.16092        1.74129
C        -11.84568        7.86523        1.64983
N        -11.86261        9.20011        1.88132
C        -10.70789        9.87430        2.10268
C         -9.51522        9.21397        2.14165
N         -9.46736        7.86709        1.99753
C         -8.25812        9.87513        2.32037
N         -7.25007       10.43454        2.45739
C        -10.82797       11.28771        2.29643
N        -10.90124       12.43327        2.46848
C        -13.06554        7.21962        1.32320
C        -13.01471        5.80608        1.16646
C        -11.70889        5.06307        1.29124
N        -11.85629        3.74172        1.08571
S        -13.45610        3.44730        0.80773
N        -14.04398        4.98720        0.88603
C        -14.34872        7.92606        1.07424
C        -15.67624        7.53777        1.31601
C        -16.59655        8.52758        0.89425
C        -15.94593        9.61310        0.36009
S        -14.30557        9.47778        0.26603
C        -16.88460       10.60287        0.02367
C        -18.13982       10.15066        0.34731
C        -18.04016        8.77804        0.85028
C        -19.04928        7.92913        1.12248
C        -18.80660        6.59761        1.55755
N        -18.60662        5.51266        1.91689
C        -20.40486        8.31517        0.93507
N        -21.49797        8.66989        0.76142
C        -19.10788       11.15999        0.16421
C        -18.54119       12.32032       -0.37197
S        -16.81828       12.13881       -0.59044
C        -19.10107       13.59256       -0.66702
C        -20.35060       13.83847       -1.07922
C        -21.53441       13.04021       -1.43198
C        -21.56999       11.86893       -2.11672
C        -22.77652       11.16285       -2.38978
N        -23.75626       10.57785       -2.60088
C        -20.41012       11.28348       -2.70660
N        -19.49547       10.79026       -3.22387
C        -22.72098       13.91874       -1.17975
C        -22.26451       15.22562       -0.97794
C        -20.79764       15.26415       -0.94542
O        -20.11489       16.25327       -0.77806
C        -23.09360       16.33130       -0.82864
C        -24.48591       16.11855       -0.92119
C        -24.95651       14.80726       -1.08788
C        -24.09086       13.68876       -1.18761
S        -26.68162       14.77139       -1.17549
C        -26.78604       16.44980       -1.04208
C        -25.57048       17.06047       -0.88754
Br       -28.40937       17.38146       -1.10447
H          0.49645        4.39752        4.21275
H          3.24806        3.71544        0.08025
H          2.90219        5.53565        5.28938
H         -2.26983        2.49096       -1.04564
H         -3.98978        0.89503        1.37545
H         -9.81173        3.03438        2.47606
H        -15.93840        6.59021        1.77280
H        -20.15565       11.08401        0.42282
H        -18.45201       14.44672       -0.45671
H        -22.67608       17.32384       -0.68076
H        -24.53029       12.70510       -1.30190
H        -25.44150       18.13078       -0.77941
