100

C         -4.31110        3.44102       -3.70223
C         -4.64411        4.27209       -4.71679
C         -3.68570        4.77160       -5.64936
N         -2.89837        5.16437       -6.40386
C         -5.96968        4.76696       -4.88461
N         -7.06081        5.14522       -5.00737
C         -2.94715        2.97653       -3.35722
C         -2.90849        2.64491       -1.99896
C         -1.77975        2.16264       -1.35548
C         -0.63627        1.92631       -2.15468
C         -0.70104        2.19591       -3.53130
C         -1.84263        2.73347       -4.15673
S          0.76313        1.77523       -4.33214
C          1.50339        1.36362       -2.87744
C          0.65992        1.41811       -1.79917
Br         3.31545        0.91735       -2.77810
C         -4.26439        2.71556       -1.42447
O         -4.56149        2.53856       -0.26111
C         -5.16495        2.97823       -2.59816
C         -6.44912        2.61570       -2.65449
C         -7.26079        2.01372       -1.62751
C         -7.67591        0.73418       -1.79087
C         -8.74852        0.45233       -0.87027
C         -9.55881       -0.70575       -0.91547
N        -10.20002       -1.67315       -0.94034
C         -8.95679        1.52477       -0.09431
C         -7.99892        2.56292       -0.44836
C         -7.90627        3.78831        0.12210
C         -8.66779        4.43331        1.25368
C         -8.51577        5.76574        1.04043
C         -7.48316        6.00855        0.05350
C         -7.06809        4.84043       -0.44163
C         -6.83538        7.24556       -0.17370
N         -6.26064        8.23623       -0.36170
C         -9.10988        3.92068        2.56219
C         -8.84592        4.44088        3.80388
C         -8.27328        5.70531        4.24164
C         -7.96982        5.88797        5.54211
C         -8.16021        4.84885        6.54587
C         -8.57625        3.61248        6.21672
C         -8.93047        3.33673        4.83699
C         -8.93786        2.15007        4.16772
C         -9.60819        2.59121        2.92927
C        -10.82207        2.11864        2.59659
C         -7.70125        1.31947        4.12398
C         -6.50037        1.81366        4.54206
C         -5.42409        1.28329        3.73062
C         -4.08719        1.73859        3.77167
N         -2.97739        2.07214        3.80338
C         -5.93754        0.45270        2.81245
C         -7.33625        0.24400        3.15070
C         -8.07880       -0.80751        2.75193
C         -7.74823       -1.89981        1.80205
C         -8.79762       -2.75290        1.84875
C         -9.78807       -2.28947        2.79518
C         -9.38580       -1.12721        3.32561
C        -10.99391       -2.97022        3.08280
N        -11.98770       -3.52012        3.32002
C         -6.76837       -2.06740        0.75237
C         -5.44353       -2.25468        0.73418
C         -4.35761       -2.37431        1.71409
C         -4.42158       -2.86945        2.97627
C         -3.27856       -3.03789        3.80242
N         -2.34703       -3.16763        4.49597
C         -5.62365       -3.34614        3.57316
N         -6.56507       -3.76254        4.10625
C         -3.09292       -2.06042        0.97705
C         -3.36440       -2.01270       -0.39128
C         -4.80366       -2.17198       -0.62831
O         -5.34450       -2.18735       -1.71551
C         -2.39548       -1.85707       -1.37961
C         -1.04611       -1.84496       -0.96020
C         -0.77287       -1.82582        0.41502
C         -1.78591       -1.86225        1.40077
S          0.92518       -1.80941        0.71795
C          1.26886       -2.04467       -0.91603
C          0.17027       -1.91420       -1.72561
Br         2.97943       -2.48718       -1.53226
H         -1.79377        1.94022       -0.29105
H         -1.83922        2.89631       -5.22716
H          0.94314        1.13913       -0.79155
H         -6.98039        2.66646       -3.60601
H         -7.37842        0.05323       -2.57827
H         -9.79006        1.62556        0.55962
H         -8.88821        6.56812        1.65667
H         -6.22531        4.73028       -1.09305
H         -8.05879        6.50298        3.54755
H         -7.52928        6.82356        5.87570
H         -7.91488        5.09458        7.57473
H         -8.68879        2.82913        6.95782
H        -11.25246        1.25801        3.09972
H        -11.45614        2.62787        1.87710
H         -6.33665        2.70899        5.12525
H         -5.39905        0.05407        1.97656
H         -8.94498       -3.62334        1.22312
H         -9.90946       -0.56252        4.08027
H         -7.25311       -2.05324       -0.22765
H         -2.66715       -1.84210       -2.43159
H         -1.49340       -1.81542        2.44202
H          0.20683       -1.96710       -2.80738
