103

C         -6.19128        5.29291        4.66762
C         -6.64648        4.41973        5.59916
C         -6.10038        4.32884        6.91458
N         -5.65135        4.24494        7.98061
C         -7.75564        3.55455        5.37253
N         -8.65637        2.84762        5.19339
C         -5.13132        6.32746        4.87687
C         -5.20913        7.25984        3.83862
C         -4.41003        8.39414        3.74958
C         -3.40542        8.56830        4.72735
C         -3.26979        7.59982        5.73356
C         -4.13281        6.47811        5.83463
S         -1.93234        7.96098        6.76736
C         -1.55681        9.35867        5.89957
C         -2.41660        9.60264        4.86270
Br        -0.09515       10.45718        6.30665
C         -6.16827        6.81843        2.81486
O         -6.35914        7.34604        1.73672
C         -6.75163        5.53304        3.31810
C         -7.53676        4.78735        2.52518
N         -8.00970        5.06048        1.25527
C         -8.79115        4.26889        0.45785
S         -9.94371        3.13907        1.09836
C        -10.50774        2.73763       -0.43702
N        -11.54245        1.77031       -0.57948
O        -11.26669        0.77069       -1.25536
O        -12.63584        2.02995       -0.06373
C         -9.85358        3.37881       -1.45093
C         -8.83939        4.25078       -0.93461
C         -8.03016        5.01158       -1.83198
C         -6.80239        5.52700       -1.63768
C         -6.19572        6.36290       -2.63237
S         -7.23449        7.37826       -3.53949
C         -5.97663        8.21066       -4.31715
C         -4.74943        7.64808       -3.98698
C         -4.86296        6.58487       -2.98717
C         -3.75311        5.88530       -2.38391
C         -3.73391        4.63168       -1.90622
O         -3.64224        8.21204       -4.55031
C         -2.55582        7.34279       -4.82205
C         -6.30124        9.29039       -5.20225
C         -7.39374       10.04998       -5.00764
C         -7.79064       11.15534       -5.84841
C         -8.48994       12.22015       -5.42670
C         -8.81960       13.34924       -6.26082
C         -9.17366       14.43588       -5.56018
C         -9.12657       14.23622       -4.12018
S         -8.97598       12.51762       -3.77194
C         -9.05052       15.20429       -3.18799
C         -8.98469       16.62910       -3.45237
C         -8.58250       17.35327       -2.39920
C         -8.32155       16.55787       -1.21961
S         -8.82773       14.90631       -1.46538
C         -7.71558       17.03826       -0.12254
C         -7.36676       16.28938        1.06848
C         -6.78016       16.72184        2.19489
C         -6.24763       15.66652        3.12326
O         -6.48106       14.47596        3.13278
C         -5.28040       16.35099        3.99362
C         -4.49175       15.74527        4.95842
C         -3.55950       16.53457        5.63624
C         -3.40885       17.91004        5.28522
C         -2.43000       18.67448        5.93814
C         -1.63847       18.10121        6.92978
C         -1.81193       16.77284        7.29078
C         -2.76203       15.98538        6.65033
F         -1.06008       16.23289        8.25941
F         -0.70531       18.84751        7.53549
C         -4.24158       18.48660        4.30133
C         -5.21595       17.71394        3.68295
C         -6.30774       18.01991        2.70757
C         -6.90733       19.23158        2.58905
C         -8.13825       19.41955        1.90255
N         -9.15948       19.61462        1.36681
C         -6.41243       20.39717        3.22747
N         -6.00818       21.36738        3.72505
H         -4.53156        9.09660        2.92934
H         -3.95690        5.76298        6.63038
H         -2.33696       10.45439        4.19809
H         -7.85032        3.80107        2.84474
H         -7.69442        5.96688        0.88664
H        -10.07614        3.23393       -2.50376
H         -8.49972        5.16523       -2.80466
H         -6.25336        5.35419       -0.71827
H         -2.81348        6.42502       -2.31830
H         -4.60057        3.98057       -1.91142
H         -2.81854        4.21508       -1.49513
H         -1.95851        7.79606       -5.61968
H         -2.87265        6.35225       -5.16385
H         -1.89825        7.27936       -3.95250
H         -5.60928        9.50764       -6.00960
H         -8.04939        9.86826       -4.15672
H         -7.45762       11.11044       -6.88231
H         -8.73727       13.32065       -7.33752
H         -9.41256       15.38265       -6.02056
H         -9.18161       17.06290       -4.42178
H         -8.43194       18.42353       -2.42825
H         -7.39949       18.07465       -0.16223
H         -7.54535       15.21186        0.99503
H         -4.60617       14.68390        5.16422
H         -2.27085       19.72126        5.69116
H         -2.86992       14.94800        6.95573
H         -4.09909       19.53392        4.05109
