106

C        -10.67539       -7.31794       -7.95922
C        -11.76851       -6.59762       -8.44214
F        -12.33282       -6.95881       -9.60236
C        -12.26586       -5.51179       -7.73710
F        -13.31240       -4.81962       -8.20713
C        -11.67563       -5.12081       -6.54226
C        -10.55947       -5.81203       -6.05212
C        -10.04606       -6.93913       -6.75860
C         -8.92029       -7.63782       -6.25101
C         -8.29115       -7.20547       -5.08361
C         -8.82773       -6.08868       -4.43127
C         -9.94057       -5.39210       -4.87574
C         -8.07306       -5.76584       -3.21640
O         -8.25110       -4.77658       -2.53983
C         -7.07778       -6.87465       -3.04089
C         -7.09409       -7.66414       -4.30520
C         -6.12565       -8.50701       -4.74632
C         -6.18512       -9.15880       -6.01146
N         -6.23105       -9.69479       -7.04116
C         -4.93088       -8.76483       -4.01393
N         -3.95316       -8.97712       -3.42242
C         -6.44143       -7.11116       -1.88039
C         -6.53273       -6.27613       -0.72838
C         -7.36798       -6.36109        0.36694
C         -7.04862       -5.39325        1.39526
N         -7.67282       -5.34563        2.60785
C         -8.64578       -6.29745        2.68687
C         -9.00220       -7.21254        1.67389
C        -10.11512       -8.20038        1.94630
C        -10.94778       -8.54590        0.71795
N         -8.34955       -7.30691        0.47926
C         -6.03361       -4.53252        1.02755
S         -5.38038       -5.01169       -0.50155
C         -5.46372       -3.40202        1.69219
C         -5.93000       -2.15308        1.52261
C         -5.32209       -0.95820        2.06896
C         -5.92467        0.18221        1.69271
C         -7.09927       -0.02269        0.86094
S         -7.33128       -1.74647        0.56948
C         -7.95573        0.91299        0.40733
C         -7.86312        2.35523        0.55882
C         -9.00861        2.99739        0.27407
C        -10.09385        2.09428       -0.05754
S         -9.47868        0.50362       -0.39112
C        -11.39147        2.42159        0.03156
C        -12.45196        1.46428        0.02041
C        -13.15815        0.87895       -1.00901
C        -14.28097        0.09392       -0.53324
N        -15.20802       -0.46601       -1.36634
C        -14.88696       -0.26558       -2.67166
C        -13.75120        0.41314       -3.14199
C        -13.45345        0.39126       -4.62090
C        -14.09575        1.55124       -5.35838
N        -12.86934        1.06431       -2.33206
C        -14.31873       -0.05778        0.84414
S        -13.07084        0.92038        1.54319
C        -15.19248       -0.76928        1.73678
C        -15.87223       -1.89451        1.45814
C        -17.03742       -2.26765        2.32848
O        -17.23891       -1.95741        3.48298
C        -17.94832       -3.03250        1.44857
C        -19.22733       -3.46811        1.75893
C        -19.98189       -4.07726        0.74590
C        -19.43046       -4.21073       -0.56559
C        -20.20783       -4.78121       -1.58347
C        -21.49923       -5.22169       -1.31423
C        -22.02897       -5.11106       -0.03679
C        -21.28241       -4.54442        0.99283
F        -23.27105       -5.54544        0.21591
F        -22.22793       -5.75518       -2.30409
C        -18.11863       -3.77648       -0.83369
C        -17.36456       -3.21262        0.18378
C        -15.95752       -2.75065        0.27245
C        -14.91643       -3.26333       -0.42108
C        -13.58076       -3.16083        0.07321
N        -12.51660       -3.14773        0.52375
C        -15.07948       -3.98008       -1.63890
N        -15.22476       -4.51039       -2.65973
H        -10.31858       -8.16315       -8.54401
H        -12.08993       -4.26886       -6.00983
H         -8.57199       -8.50757       -6.80135
H        -10.30102       -4.53781       -4.30739
H         -5.82568       -7.99040       -1.73563
H         -9.16183       -6.31559        3.64439
H        -10.79178       -7.78765        2.70470
H         -9.67624       -9.11389        2.36327
H        -11.34317       -7.64466        0.23738
H        -11.79539       -9.17822        1.00331
H        -10.35725       -9.09528       -0.02265
H         -4.58815       -3.58131        2.30718
H         -4.45102       -0.99247        2.70935
H         -5.59452        1.16001        2.01535
H         -6.96516        2.86076        0.88618
H         -9.14246        4.06696        0.36438
H        -11.66733        3.43910        0.29193
H        -15.58758       -0.71076       -3.37507
H        -13.80187       -0.55763       -5.04913
H        -12.36752        0.41070       -4.77004
H        -15.18204        1.55982       -5.22036
H        -13.89136        1.47273       -6.43116
H        -13.70076        2.50869       -5.00464
H        -15.36919       -0.30021        2.70607
H        -19.62411       -3.31761        2.75962
H        -19.82455       -4.88988       -2.59484
H        -21.73224       -4.47191        1.97950
H        -17.72167       -3.88239       -1.83929
