83

C         -0.41750       -9.28291        6.29465
C         -0.07369       -8.17635        5.51327
F          0.91242       -7.38167        5.95879
C         -0.69824       -7.84666        4.28332
F         -0.26213       -6.73310        3.66988
C         -1.73623       -8.60616        3.69287
C         -2.11480       -9.73212        4.47035
C         -1.45547      -10.05291        5.75361
N         -2.01485      -11.16238        6.25694
N         -2.93517      -11.46780        5.33428
N         -3.04430      -10.68378        4.25164
C         -3.79845      -12.61207        5.50156
C         -2.35759       -8.34376        2.38851
C         -3.65392       -8.62132        1.93542
C         -3.79639       -8.33023        0.55882
C         -2.64039       -7.80168        0.04000
S         -1.38489       -7.66183        1.11164
C         -2.79852       -7.62808       -1.34873
C         -4.03471       -8.08843       -1.72572
C         -4.78110       -8.47112       -0.51983
C         -6.07969       -8.81004       -0.41572
C         -6.93118       -8.85359       -1.55598
N         -7.62797       -8.89415       -2.48270
C         -6.68049       -9.09647        0.84214
N         -7.17556       -9.32905        1.86478
C         -4.14808       -8.13691       -3.14032
C         -2.97838       -7.68132       -3.77578
S         -1.87078       -7.03711       -2.57901
C         -2.59116       -7.66429       -5.21914
C         -1.25912       -7.79381       -5.69949
C         -0.92176       -7.73982       -7.10611
N          0.37667       -7.81088       -7.47755
C          1.33363       -7.91581       -6.53602
C          1.01377       -8.02074       -5.21232
N         -0.26792       -7.98215       -4.79870
F          1.97243       -8.16856       -4.28831
F          2.61320       -7.92250       -6.93251
C         -1.90046       -7.62479       -8.12433
C         -3.25350       -7.52324       -7.68680
C         -3.60193       -7.53034       -6.21384
N         -4.92307       -7.38923       -6.00532
S         -5.66147       -7.29667       -7.47761
N         -4.34354       -7.39728       -8.46582
C         -1.60947       -7.57437       -9.58672
C         -2.34586       -8.05663      -10.68384
C         -1.74004       -7.71727      -11.92228
C         -0.60229       -6.97829      -11.72268
S         -0.18256       -6.73108      -10.14600
C         -0.10790       -6.54191      -12.96482
C         -0.92173       -7.01395      -13.96482
C         -1.98163       -7.83665      -13.36176
C         -2.92427       -8.56698      -13.99607
C         -3.02038       -8.59398      -15.41462
N         -3.09764       -8.62851      -16.57480
C         -3.84204       -9.37702      -13.27584
N         -4.57788      -10.05124      -12.68933
C         -0.49681       -6.54509      -15.22915
C          0.64600       -5.74020      -15.12524
S          1.12276       -5.55393      -13.45962
C          1.42061       -5.05892      -16.17024
C          2.80949       -4.78395      -16.11712
F          3.52437       -5.18023      -15.05014
C          3.53087       -4.12581      -17.14462
F          4.84676       -3.92589      -16.96939
C          2.95954       -3.67780      -18.33760
C          1.58621       -3.93647      -18.43514
C          0.81295       -4.61490      -17.37323
N         -0.46496       -4.68641      -17.79628
N         -0.41486       -4.11646      -19.00896
N          0.75786       -3.64152      -19.44654
C         -1.59295       -4.01163      -19.83576
H          0.07428       -9.51617        7.22807
H         -3.54366      -13.12758        6.43135
H         -3.65085      -13.28181        4.65119
H         -4.83151      -12.25884        5.54165
H         -4.40932       -9.06428        2.57472
H         -4.99479       -8.54082       -3.68345
H         -3.28957       -8.57826      -10.57068
H         -0.97217       -6.75827      -16.17931
H          3.53077       -3.18540      -19.11122
H         -2.42756       -4.52148      -19.34895
H         -1.37909       -4.48121      -20.79932
H         -1.82360       -2.95182      -19.96864
