98

C         -4.34057        2.28135        3.48773
C         -4.62720        2.54762        4.82509
F         -4.19776        3.69373        5.37094
C         -5.34840        1.64087        5.58771
F         -5.62043        1.90371        6.87308
C         -5.79804        0.45080        5.02765
C         -5.52985        0.16451        3.68086
C         -4.78531        1.09154        2.88961
C         -4.50514        0.80677        1.53148
C         -4.97500       -0.36912        0.95866
C         -5.69512       -1.25518        1.77119
C         -5.98239       -1.02513        3.10612
C         -6.03145       -2.47287        1.02410
O         -6.82654       -3.31032        1.39622
C         -5.21877       -2.41267       -0.23737
C         -4.85973       -0.98226       -0.39947
C         -4.67317       -0.31955       -1.56797
C         -4.77730       -0.96761       -2.83211
N         -4.86764       -1.49086       -3.87074
C         -4.46025        1.08465       -1.61852
N         -4.28982        2.23249       -1.64445
C         -4.73783       -3.47151       -0.91899
C         -4.89809       -4.91602       -0.60765
C         -4.93102       -5.88808       -1.61897
O         -4.83923       -5.45571       -2.92033
C         -5.51404       -6.26562       -3.88182
C         -4.99207       -7.24930       -1.27984
C         -5.08851       -7.68059        0.05996
C         -5.08415       -6.70171        1.06411
C         -4.91172       -5.35658        0.72113
O         -5.14677       -7.08135        2.38310
C         -5.93268       -6.21889        3.21042
C         -5.18636       -9.11876        0.38958
N         -5.87194       -9.62210        1.40386
C         -5.65561      -10.96278        1.46486
C         -4.86692      -11.51040        0.50288
S         -4.33785      -10.28831       -0.59289
N         -4.61817      -12.84108        0.57286
C         -5.17646      -13.32506        1.67410
S         -6.17337      -12.20498        2.55494
C         -4.99054      -14.73936        2.06761
C         -4.95533      -15.23100        3.38304
O         -5.18224      -14.34175        4.39998
C         -4.52064      -14.58862        5.63455
C         -4.71281      -16.59969        3.61211
C         -4.43782      -17.48999        2.55454
C         -4.36561      -16.96587        1.24768
C         -4.69835      -15.63125        1.01834
O         -4.00667      -17.81551        0.23667
C         -3.49748      -17.26756       -0.97150
C         -4.15887      -18.91387        2.89745
C         -4.45058      -20.01722        2.18550
C         -3.81093      -21.34456        2.50040
O         -3.32209      -21.70697        3.54929
C         -3.83972      -22.10398        1.22516
C         -3.39264      -23.39166        0.98084
C         -3.51585      -23.89488       -0.32736
C         -3.94137      -23.03144       -1.38354
C         -4.01150      -23.51340       -2.69691
C         -3.76362      -24.85508       -2.95471
C         -3.41665      -25.71645       -1.92333
C         -3.26341      -25.24325       -0.62134
F         -3.24263      -27.02176       -2.17047
F         -3.89811      -25.31564       -4.20579
C         -4.36384      -21.72722       -1.09919
C         -4.42447      -21.31928        0.22213
C         -5.10329      -20.18852        0.88723
C         -6.28080      -19.64696        0.48200
C         -7.08648      -18.87126        1.36393
N         -7.78261      -18.28588        2.08543
C         -6.81266      -19.86650       -0.81604
N         -7.20774      -20.02791       -1.89565
H         -3.77385        3.01927        2.92552
H         -6.35914       -0.23858        5.65353
H         -3.90907        1.51592        0.96234
H         -6.53121       -1.76901        3.68029
H         -4.08313       -3.31871       -1.77151
H         -5.59564       -5.69218       -4.80967
H         -6.52821       -6.51732       -3.55158
H         -4.94031       -7.17136       -4.10471
H         -4.95650       -7.99151       -2.07098
H         -4.77523       -4.63948        1.52058
H         -6.12788       -6.73999        4.15226
H         -6.89847       -5.97649        2.75163
H         -5.38142       -5.30572        3.45839
H         -4.52881      -13.65432        6.20553
H         -3.47480      -14.87804        5.48676
H         -5.06130      -15.34036        6.21642
H         -4.74523      -16.98840        4.62721
H         -4.72805      -15.23895        0.00507
H         -3.29045      -18.10770       -1.64217
H         -2.55862      -16.74030       -0.78371
H         -4.22633      -16.63075       -1.48029
H         -3.58377      -19.03800        3.81609
H         -3.00988      -23.99924        1.79645
H         -4.30637      -22.87099       -3.52315
H         -2.99221      -25.94954        0.15848
H         -4.69897      -21.08059       -1.90553
