116

C          0.82657        1.29707        1.90830
C         -0.16873        2.18876        2.32434
C         -1.25613        1.75147        3.09350
C         -1.36032        0.41748        3.48746
C         -0.35512       -0.46095        3.10946
C          0.73411       -0.03318        2.29468
C          1.53636       -1.24432        1.90198
C          2.81550       -1.29024        1.46661
C          3.60023       -0.11833        1.27195
N          4.23863        0.83623        1.10750
C          3.48321       -2.52778        1.24020
N          4.00988       -3.54342        1.04373
C          0.64584       -2.39826        2.22597
C         -0.21611       -1.92406        3.32911
C         -0.54437       -2.61270        4.44619
C         -0.04479       -3.93017        4.66656
N          0.39449       -4.98675        4.85840
C         -1.28205       -2.03061        5.51527
N         -1.88924       -1.56215        6.38612
C          0.41640       -3.42703        1.37926
C         -0.76366       -4.24799        1.35553
C         -2.08705       -3.95470        1.70301
C         -2.95827       -5.04367        1.45618
C         -2.31509       -6.08110        0.82510
S         -0.67633       -5.84792        0.64010
C         -3.26776       -7.08042        0.48555
C         -4.51279       -6.69519        0.93799
C         -4.38255       -5.37037        1.59251
C         -5.31087       -4.60021        2.19681
C         -6.67388       -4.99322        2.25872
N         -7.78951       -5.31208        2.30876
C         -4.97587       -3.34178        2.81994
N         -4.67914       -2.33450        3.31754
C         -5.49881       -7.68693        0.61737
C         -4.97304       -8.76599       -0.13297
S         -3.24474       -8.51416       -0.36689
C         -5.62919       -9.93041       -0.78672
C         -6.01733       -9.76112       -2.26934
C         -7.28845       -9.29234       -2.64669
C         -7.56074       -8.85137       -3.96889
C         -6.59261       -8.93554       -4.97874
C         -5.34880       -9.47496       -4.64214
C         -5.06484       -9.86689       -3.30803
C         -6.89779       -8.38362       -6.34037
O         -7.73067       -7.51203       -6.52942
O         -6.19270       -8.92967       -7.35526
C         -5.82522      -11.09595       -0.06483
C         -5.35123      -11.26722        1.37515
C         -6.17194      -10.93409        2.46298
C         -5.74979      -11.14281        3.79195
C         -4.49443      -11.69064        4.07457
C         -3.71291      -12.13562        3.00079
C         -4.14059      -11.92576        1.67010
C         -4.01133      -11.84442        5.48417
O         -3.20665      -12.69258        5.82845
O         -4.50657      -10.93159        6.35317
C         -6.48654      -12.27166       -0.63778
C         -7.85302      -12.59015       -0.72655
C         -8.06368      -13.94032       -1.12584
C         -6.88142      -14.65172       -1.13758
S         -5.52430      -13.69204       -1.05143
C         -7.17556      -16.03731       -1.26489
C         -8.53153      -16.17680       -1.44742
C         -9.16988      -14.86413       -1.40682
C        -10.46805      -14.58783       -1.63986
C        -11.39806      -15.61432       -1.97472
N        -12.11713      -16.48308       -2.25389
C        -10.95045      -13.25666       -1.62094
N        -11.33393      -12.15998       -1.60620
C         -8.90254      -17.51819       -1.65365
C         -7.85929      -18.39936       -1.36472
S         -6.37231      -17.49508       -1.11984
C         -7.85506      -19.83810       -1.36704
C         -8.93620      -20.61168       -1.10532
C         -9.12744      -21.97215       -1.69628
C         -8.25636      -23.01468       -1.68798
C         -6.97531      -22.92196       -1.07831
N         -5.93250      -22.83993       -0.59340
C         -8.59881      -24.30103       -2.21646
N         -8.86827      -25.34460       -2.65114
C        -10.54900      -21.97761       -2.18641
C        -11.23587      -20.88546       -1.58644
C        -12.53147      -20.55797       -1.96853
C        -13.16306      -21.34362       -2.93310
C        -12.49895      -22.43018       -3.51453
C        -11.18496      -22.74747       -3.15256
C        -10.29210      -20.18597       -0.67098
C        -10.61373      -19.51139        0.45803
C        -11.96235      -19.27955        0.85635
N        -13.05743      -19.08193        1.18661
C         -9.61429      -19.07031        1.37212
N         -8.81006      -18.70662        2.12680
H          1.61709        1.67201        1.26704
H         -0.11463        3.23400        2.02364
H         -2.03677        2.45719        3.37279
H         -2.23577        0.09660        4.04500
H          1.09116       -3.58595        0.53976
H         -2.38465       -2.98180        2.07382
H         -6.54976       -7.62212        0.87421
H         -8.08625       -9.21958       -1.91155
H         -8.53341       -8.41094       -4.19684
H         -4.55381       -9.54257       -5.38124
H         -4.05330      -10.21215       -3.10191
H         -5.62674       -9.68938       -7.13718
H         -7.17201      -10.54049        2.30056
H         -6.43839      -10.90886        4.59896
H         -2.77074      -12.65628        3.18038
H         -3.52329      -12.31967        0.86362
H         -5.10397      -10.24931        6.00104
H         -8.63255      -11.89474       -0.43614
H         -9.88108      -17.86498       -1.95491
H         -6.94699      -20.28959       -1.76136
H        -13.05620      -19.69031       -1.57909
H        -14.17266      -21.09311       -3.25505
H        -13.00397      -23.01635       -4.28087
H        -10.69486      -23.56284       -3.67377
