96

C         -6.50797       -1.35950       -6.70225
C         -5.23574       -1.02591       -7.17808
C         -4.10122       -1.74814       -6.77933
C         -4.21494       -2.84625       -5.92642
C         -5.47780       -3.20044       -5.47957
C         -6.62955       -2.43777       -5.83794
C         -7.79254       -2.93356       -5.02692
C         -9.11193       -2.79351       -5.28352
C         -9.59851       -2.09774       -6.42663
N         -9.99393       -1.53653       -7.36160
C        -10.09645       -3.41738       -4.46407
N        -10.87905       -3.92084       -3.77142
C         -7.16898       -3.76272       -3.95729
C         -5.91972       -4.28004       -4.55365
C         -5.49722       -5.56475       -4.60940
C         -6.29048       -6.63543       -4.10269
N         -6.94836       -7.52264       -3.74160
C         -4.33212       -5.95244       -5.33091
N         -3.37035       -6.26821       -5.89733
C         -7.45330       -3.64087       -2.64180
C         -6.61053       -4.12556       -1.59280
S         -6.95161       -5.66454       -0.92757
C         -5.57722       -5.66144        0.11095
C         -4.98464       -4.40925        0.09319
C         -5.61046       -3.51946       -0.84083
N         -5.25262       -2.13758       -0.97210
O         -4.88119       -1.75786       -2.08628
O         -5.35139       -1.45354        0.05176
C         -3.85021       -4.06980        0.90933
N         -2.91973       -3.81690        1.55330
C         -5.24532       -6.81648        0.88828
C         -5.50738       -8.05734        0.44796
C         -5.16993       -9.21723        1.19319
C         -5.06412       -9.42860        2.57093
C         -4.71898      -10.76599        2.85631
C         -4.56377      -11.49529        1.70328
S         -4.84601      -10.67501        0.29627
C         -4.21183      -12.81226        2.03599
C         -4.16097      -12.93652        3.40365
C         -4.47000      -11.63531        4.00875
C         -4.50971      -11.30353        5.31296
C         -4.23208      -12.25566        6.32881
N         -4.00197      -13.03781        7.15258
C         -4.81951       -9.98409        5.74442
N         -5.08088       -8.90223        6.07778
C         -3.83834      -14.26363        3.77617
C         -3.66951      -15.08280        2.65058
S         -3.82448      -14.16957        1.17963
C         -3.34161      -16.49575        2.59980
S         -2.34127      -17.17893        3.81681
C         -2.31449      -18.74208        3.08483
C         -3.06860      -18.73499        1.92204
C         -3.66947      -17.46250        1.66069
N         -4.51650      -17.22861        0.52694
O         -5.68604      -16.90886        0.76301
O         -4.00581      -17.41164       -0.58304
C         -3.23519      -19.87878        1.07131
N         -3.38884      -20.82542        0.41998
C         -1.55248      -19.75471        3.74435
C         -1.88619      -21.05316        3.71233
C         -1.13032      -22.06040        4.42483
C         -1.62588      -22.89855        5.35562
C         -0.97548      -24.17024        5.76732
C          0.33398      -24.35952        6.05623
C          1.28338      -23.29688        5.97130
N          2.04710      -22.42694        5.88430
C          0.84693      -25.59528        6.52524
N          1.27255      -26.60977        6.90633
C         -2.10676      -25.14776        5.91984
C         -3.33934      -24.43047        5.90016
C         -4.55430      -25.10472        5.92771
C         -4.54815      -26.49680        6.02264
C         -3.34167      -27.20392        6.06340
C         -2.11518      -26.53555        5.99559
C         -3.03188      -22.97218        5.81633
C         -3.77948      -21.96296        6.32292
C         -5.10286      -22.15113        6.81057
N         -6.18948      -22.29179        7.19254
C         -3.23910      -20.66031        6.53407
N         -2.80373      -19.60569        6.74696
H         -7.34823       -0.73811       -6.99319
H         -5.11740       -0.17111       -7.84216
H         -3.11759       -1.43651       -7.12611
H         -3.31839       -3.36798       -5.60691
H         -8.31434       -3.06060       -2.31517
H         -4.72926       -6.66616        1.83503
H         -5.96422       -8.22644       -0.52601
H         -5.24997       -8.64628        3.29665
H         -3.74316      -14.63054        4.79217
H         -0.71113      -19.43885        4.36318
H         -2.74779      -21.42809        3.16528
H         -0.12262      -22.18554        4.02988
H         -5.51063      -24.59631        5.86193
H         -5.49159      -27.03914        6.05510
H         -3.36009      -28.29055        6.12985
H         -1.21106      -27.13396        5.98346
