115

C         -5.36489       -1.91339        2.96647
C         -6.02962       -2.67543        3.87357
C         -5.56320       -3.95598        4.28371
N         -5.18023       -4.99934        4.61456
C         -7.20452       -2.21279        4.53066
N         -8.16821       -1.83434        5.06413
C         -4.05579       -2.22690        2.31883
C         -3.50682       -1.02707        1.85637
C         -2.31758       -0.93417        1.14551
C         -1.63250       -2.13404        0.85739
C         -2.16907       -3.34651        1.32063
C         -3.38384       -3.41654        2.05534
S         -1.16693       -4.67906        0.85888
C         -0.08129       -3.66964        0.05119
C         -0.42513       -2.34626        0.10752
Br         1.44256       -4.29911       -0.83853
C         -4.40864        0.09919        2.13597
O         -4.11312        1.27227        2.07146
C         -5.70030       -0.53302        2.55894
C         -6.90351        0.01821        2.32374
C         -7.12659        1.30515        1.64816
C         -7.25576        2.48520        2.38518
C         -7.49110        3.67101        1.69508
C         -7.57799        3.70400        0.28482
C         -7.45707        2.53772       -0.44622
C         -7.23882        1.33714        0.24122
C         -7.82999        5.05973       -0.15218
C         -7.94217        5.89040        0.97881
C         -7.70659        5.07835        2.26091
C         -8.94488        5.12150        3.20177
C        -10.24004        4.55122        2.61745
C         -6.43880        5.57334        3.01786
C         -5.11992        5.45033        2.24836
C         -8.23099        7.23985        0.84449
C         -8.36197        7.80165       -0.44185
C         -8.23715        6.95966       -1.56774
C         -7.97159        5.59047       -1.42588
C         -8.62713        9.24381       -0.61557
C         -8.20462       10.15454        0.27125
S         -8.44249       11.86169        0.08226
C         -7.63388       12.40561        1.56646
C         -6.53105       13.23829        1.54773
S         -5.92527       13.55815        3.11894
C         -7.17712       12.64865        3.84368
C         -8.05102       12.13255        2.91021
S         -9.51123       11.26228        3.38792
C        -10.55012       12.64929        3.46752
C        -11.85071       12.53829        3.77076
C        -12.73823       13.68675        3.77567
C        -14.06011       13.65631        3.54516
C        -14.89432       14.83141        3.46091
C        -16.12128       14.58407        2.97780
C        -16.35648       13.18539        2.65559
S        -14.97976       12.21765        3.18744
C        -17.42458       12.67164        2.01341
C        -18.53480       13.41609        1.44830
C        -19.44320       12.65376        0.82045
C        -19.14547       11.23816        0.85818
S        -17.64064       10.95014        1.69761
C        -19.94026       10.27888        0.35355
C        -19.70392        8.85232        0.43062
C        -20.54825        7.99008        1.05033
C        -19.89097        6.70286        1.06604
C        -20.23878        5.54051        1.65003
C        -19.26736        4.46483        1.56292
C        -19.26416        3.22974        2.10071
C        -18.01050        2.53904        1.75459
C        -17.25595        3.35252        0.98087
C        -17.99041        4.58710        0.84026
C        -17.66126        5.73650        0.22527
C        -18.61000        6.82425        0.35753
C        -18.52732        8.10216       -0.04250
C        -17.59896        1.21907        2.15932
C        -17.47836        0.84344        3.43881
H         -1.95840        0.02814        0.79089
H         -3.76024       -4.38978        2.35203
H          0.14485       -1.55227       -0.36072
H         -7.82836       -0.51839        2.51703
H         -7.18009        2.48171        3.46761
H         -7.54298        2.54474       -1.52696
H         -7.16385        0.41802       -0.33500
H         -9.14180        6.15555        3.51353
H         -8.72581        4.56167        4.12073
H        -10.51090        5.03121        1.67289
H        -11.06686        4.70923        3.31819
H        -10.16370        3.47231        2.44803
H         -6.32570        5.00960        3.95345
H         -6.56524        6.62516        3.30741
H         -4.84180        4.40244        2.09495
H         -4.30848        5.91843        2.81545
H         -5.16700        5.94166        1.27258
H         -8.34927        7.85060        1.73367
H         -8.33369        7.37077       -2.57420
H         -7.87169        4.96022       -2.30475
H         -9.15426        9.53837       -1.52770
H         -7.67214        9.82468        1.15783
H         -6.03008       13.67502        0.69422
H         -7.23087       12.56325        4.92110
H        -10.13666       13.62325        3.21788
H        -12.28174       11.56252        3.98630
H        -12.25758       14.65093        3.93099
H        -14.54151       15.81584        3.73739
H        -16.86461       15.35603        2.83937
H        -18.61040       14.49284        1.50300
H        -20.32345       13.04897        0.33232
H        -20.87821       10.55956       -0.11974
H        -21.48137        8.22213        1.53649
H        -21.15648        5.40745        2.20692
H        -20.03507        2.78730        2.71147
H        -16.27409        3.16055        0.58149
H        -16.72483        5.88364       -0.29544
H        -17.70531        8.55232       -0.57702
H        -17.37694        0.51112        1.36474
H        -17.67119        1.52840        4.25934
H        -17.16116       -0.16293        3.69306
