121

C          1.04246        2.17104        4.02315
C          1.19667        1.77971        5.31238
C          2.32415        1.03807        5.75820
N          3.24095        0.43142        6.11775
C          0.26895        2.13901        6.34065
N         -0.48222        2.42555        7.17735
C          2.01995        1.98657        2.90602
C          1.69922        2.89040        1.89099
C          2.38829        2.99493        0.68911
C          3.46829        2.11207        0.47495
C          3.79284        1.18790        1.48077
C          3.07916        1.10598        2.70595
S          5.13310        0.20371        1.00523
C          5.25864        0.98023       -0.48822
C          4.33089        1.97066       -0.66550
Br         6.53890        0.52668       -1.77844
C          0.49069        3.65357        2.23381
O          0.06080        4.59651        1.60551
C         -0.04039        3.01801        3.48432
C         -1.32379        3.08136        3.86307
C         -2.37224        3.82775        3.16962
C         -2.64082        5.15165        3.53240
C         -3.68161        5.79928        2.89020
C         -4.45120        5.13780        1.90454
C         -4.17679        3.83637        1.53168
C         -3.12678        3.18053        2.16942
C         -5.48640        6.02207        1.43655
C         -5.37636        7.24627        2.12131
C         -4.20199        7.22245        3.09855
C         -4.66947        7.46715        4.56239
C         -5.67936        6.46434        5.12006
C         -3.14909        8.30236        2.71664
C         -2.53964        8.17656        1.32027
C         -6.24689        8.28074        1.85868
C         -7.26489        8.07319        0.91891
C         -7.36366        6.85463        0.22570
C         -6.47098        5.81758        0.48502
C         -8.21263        9.13395        0.60444
C         -8.61516        9.99532        1.54411
C         -9.45263       11.09246        1.25323
S         -9.15382       12.51073        2.13835
C        -10.41185       13.38094        1.37959
C        -11.05065       12.59064        0.42942
C        -10.50271       11.25741        0.36992
C        -11.04158       10.21268       -0.56523
C        -12.41863       10.56768       -1.11981
C        -12.45418       12.02406       -1.60933
C        -13.78028       12.31412       -2.30679
C        -12.22162       12.99631       -0.43342
C        -10.69971       14.72449        1.75421
C         -9.96548       15.43272        2.63146
C        -10.24644       16.82339        3.01514
C        -10.80382       17.79595        2.15793
C        -11.06385       19.13505        2.59153
N        -11.62987       20.02392        1.74407
C        -11.91813       19.62425        0.47809
C        -11.66175       18.34693        0.05374
N        -11.10645       17.44196        0.88761
C        -11.98385       17.86667       -1.25623
N        -12.26179       17.47654       -2.31377
C        -12.51353       20.60911       -0.36178
N        -13.00713       21.38479       -1.07367
C        -10.74878       19.55583        3.89264
C        -10.15735       18.62421        4.78807
C         -9.88902       17.22538        4.33549
N         -9.31585       16.47208        5.29218
S         -9.12761       17.43631        6.62540
N         -9.79155       18.84479        6.06354
C        -10.95583       20.92519        4.36851
C        -10.03543       21.89285        4.26604
C        -10.18909       23.20491        4.83909
C         -9.05054       23.91078        4.85400
C         -7.91341       23.20105        4.28820
S         -8.46382       21.70953        3.52617
C         -6.61961       23.55667        4.40219
C         -6.11717       24.69668        5.14951
C         -4.78264       24.72325        5.26825
C         -4.13171       23.62792        4.59765
S         -5.27062       22.61863        3.75442
C         -2.82054       23.37807        4.61701
H          2.08110        3.71361       -0.06635
H          3.36625        0.34924        3.42691
H          4.25321        2.57341       -1.56274
H         -1.71857        2.51055        4.69829
H         -2.06179        5.65607        4.29856
H         -4.76421        3.33390        0.77158
H         -2.90450        2.15521        1.88645
H         -5.11208        8.46913        4.64653
H         -3.79651        7.46425        5.22836
H         -6.61421        6.47140        4.55221
H         -5.92154        6.72036        6.15727
H         -5.28065        5.44579        5.12236
H         -2.32638        8.28826        3.44298
H         -3.60488        9.29939        2.79269
H         -1.93866        7.26715        1.22810
H         -1.87879        9.02794        1.12573
H         -3.30301        8.17039        0.53675
H         -6.12625        9.22909        2.37275
H         -8.14598        6.70731       -0.51538
H         -6.55566        4.87927       -0.05034
H         -8.54291        9.19241       -0.42528
H         -8.24324        9.92012        2.56355
H        -11.10297        9.24258       -0.05853
H        -10.34484       10.10748       -1.40582
H        -13.17955       10.41692       -0.34312
H        -12.65707        9.87869       -1.93899
H        -11.64774       12.16259       -2.34303
H        -14.62755       12.15891       -1.63057
H        -13.91337       11.65251       -3.16989
H        -13.81331       13.34681       -2.66741
H        -13.11510       13.02884        0.20363
H        -12.06544       14.00634       -0.83076
H        -11.56804       15.16514        1.27830
H         -9.10442       14.99793        3.13506
H        -11.89480       21.09779        4.88494
H        -11.12342       23.55369        5.25626
H         -8.98121       24.89987        5.28198
H         -6.75897       25.43211        5.61228
H         -4.23953       25.47413        5.82450
H         -2.13035       24.00844        5.16612
H         -2.40191       22.52507        4.09159
