96

C        -14.58489        1.76207       -3.40633
C        -15.36735        1.13767       -2.49502
C        -16.70284        0.73743       -2.78050
N        -17.79122        0.40185       -3.00627
C        -14.91796        0.77633       -1.18797
N        -14.56843        0.49099       -0.12146
C        -14.93970        2.09500       -4.82355
C        -13.76835        2.44414       -5.50332
C        -13.72557        2.84290       -6.83309
C        -14.94512        2.89796       -7.54104
C        -16.12945        2.55218       -6.87223
C        -16.15021        2.15431       -5.50915
S        -17.49559        2.69034       -7.92376
C        -16.53409        3.20345       -9.21248
C        -15.20410        3.28332       -8.90001
Br       -17.21971        3.62581      -10.90366
C        -12.60636        2.40929       -4.60349
O        -11.44800        2.60991       -4.90724
C        -13.16429        2.12888       -3.24898
C        -12.43192        2.38222       -2.15361
N        -11.11808        2.78648       -2.05004
C        -10.39065        2.98325       -0.90746
S        -11.01058        2.55694        0.65470
C         -9.52866        2.82326        1.39465
N         -9.39562        2.52130        2.78296
O         -8.91909        3.41221        3.49721
O         -9.74600        1.39429        3.15501
C         -8.58637        3.36055        0.55454
C         -9.10178        3.50749       -0.78338
C         -8.31091        4.09469       -1.83900
C         -8.77273        4.84054       -2.86251
C         -7.95047        5.49269       -3.91478
C         -6.74276        4.99457       -4.45560
C         -5.99563        5.69623       -5.47471
N         -4.84643        5.18004       -5.96197
C         -4.42548        3.98215       -5.49260
C         -5.14183        3.29632       -4.54429
N         -6.28793        3.80103       -4.01883
C         -4.75885        2.00685       -4.06269
N         -4.43649        0.95313       -3.68333
C         -3.21246        3.47876       -6.06396
N         -2.23559        3.04847       -6.51814
C         -6.43845        6.90365       -6.02543
C         -7.68823        7.40922       -5.57724
C         -8.45879        6.69163       -4.50036
N         -9.61944        7.30577       -4.20423
S         -9.72245        8.65094       -5.16423
N         -8.31751        8.50929       -6.02662
C         -5.69795        7.66665       -7.04900
C         -4.80170        8.62296       -6.76249
C         -4.24388        9.54810       -7.72472
C         -3.88893       10.71652       -7.16158
C         -4.15191       10.74372       -5.72812
S         -4.34072        9.08695       -5.14870
C         -4.43119       11.81914       -4.96843
C         -4.50687       13.19646       -5.41460
C         -5.08775       14.01498       -4.52444
C         -5.50973       13.35015       -3.30680
S         -4.97957       11.69309       -3.29183
C         -6.24166       13.94325       -2.35031
C         -6.82053       13.27197       -1.22922
S         -8.47965       12.83664       -1.44024
C         -8.69798       12.27683        0.17460
C         -7.47657       12.28624        0.83279
C         -6.38013       12.90419        0.03589
C         -5.06918       13.06410        0.57170
C         -3.90056       13.71626       -0.06873
O         -3.85169       14.41433       -1.05918
O         -2.76934       13.49957        0.63783
C         -4.93941       12.55643        1.89862
C         -5.98017       11.94600        2.64327
C         -7.27608       11.78646        2.14104
O         -8.22487       11.15441        2.89594
C        -10.03931       11.90851        0.51103
C        -10.61879       12.20713        1.68031
H        -12.78478        3.12225       -7.29921
H        -17.10783        1.93191       -5.05207
H        -14.43715        3.59946       -9.59690
H        -12.90758        2.31292       -1.18188
H        -10.62786        2.82729       -2.95251
H         -7.58665        3.63346        0.87285
H         -7.23604        3.95902       -1.73454
H         -9.84006        5.04823       -2.92558
H         -6.01376        7.49775       -8.07202
H         -4.20037        9.34239       -8.78502
H         -3.52270       11.56601       -7.72081
H         -4.18272       13.52383       -6.39278
H         -5.27751       15.06430       -4.70696
H         -6.52072       14.98627       -2.47264
H         -2.08516       13.98347        0.12961
H         -3.97368       12.63339        2.40236
H         -5.73984       11.59214        3.64475
H         -7.86063       10.96048        3.77451
H        -10.64939       11.43307       -0.25448
H        -10.09688       12.71901        2.48124
H        -11.65044       11.92770        1.86839
