90

C          0.09161       -2.68181       -0.35837
C         -0.75596       -1.68188        0.14328
C         -0.29381       -0.36090        0.06611
C          0.94154       -0.02908       -0.49607
C          1.77414       -1.05753       -0.99695
C          1.33654       -2.36600       -0.91373
N          2.97533       -0.79203       -1.55184
C          3.33307        0.50865       -1.60639
C          2.52433        1.51342       -1.11953
N          1.32339        1.26256       -0.55346
C         -2.07233       -2.01001        0.74075
S         -2.26850       -3.53177        1.56517
C         -3.92970       -3.26904        1.95365
C         -4.29790       -2.02730        1.50364
C         -3.26468       -1.32296        0.82269
C         -3.77781       -0.03911        0.38065
O         -3.17327        0.81336       -0.25478
C         -5.23835        0.07336        0.83290
C         -5.51078       -1.23481        1.56172
O         -6.57517       -1.53669        2.07911
C         -4.63798       -4.27725        2.65681
C         -5.95112       -4.46576        2.46388
C         -6.72302       -5.42916        3.18033
N         -7.44465       -6.45431        2.56763
C         -7.48224       -6.74183        1.14566
C         -6.12788       -7.12831        0.56408
C         -8.14191       -7.22900        3.51772
O         -8.86728       -8.19006        3.36629
C         -7.77066       -6.58511        4.78977
C         -6.88707       -5.49317        4.50266
C         -6.48961       -4.87025        5.77803
O         -5.73427       -3.93313        5.93760
N         -7.16060       -5.66726        6.72554
C         -7.03276       -5.46017        8.15636
C         -8.04038       -4.46190        8.70135
C         -7.92200       -6.66015        6.10953
C         -8.66944       -7.63197        6.83855
C         -9.98204       -7.84202        6.67739
C        -10.66492       -8.81968        7.44831
S        -12.03358       -9.61349        6.74643
C        -12.30649      -10.63822        8.12265
C        -11.38264      -10.33105        9.08926
C        -10.47937       -9.30199        8.71699
C         -9.57849       -9.00556        9.81637
O         -8.70765       -8.15102        9.85253
C         -9.92063       -9.95331       10.96321
C        -11.10785      -10.76651       10.44244
O        -11.69822      -11.62673       11.07756
C        -13.39826      -11.54203        8.04863
C        -13.42094      -12.72534        8.68275
C        -14.56710      -13.64464        8.58524
C        -14.36093      -15.02305        8.67862
C        -15.45033      -15.89672        8.58390
C        -16.74326      -15.42743        8.41033
C        -16.95888      -14.03010        8.34067
C        -15.87550      -13.17320        8.44064
N        -18.19263      -13.51265        8.18080
C        -19.20486      -14.39879        8.08594
C        -18.99704      -15.75934        8.15131
N        -17.76721      -16.29748        8.31418
H         -0.19409       -3.73139       -0.33301
H         -0.88865        0.46043        0.45283
H          1.97526       -3.16274       -1.29003
H          4.29471        0.71983       -2.05810
H          2.81716        2.55501       -1.17081
H         -5.89481        0.15017       -0.03791
H         -5.36038        0.90988        1.52451
H         -4.08855       -4.91585        3.34724
H         -6.51346       -3.88807        1.73697
H         -7.88746       -5.86448        0.63065
H         -8.18054       -7.56895        0.97091
H         -5.36472       -6.36734        0.74180
H         -6.20497       -7.25844       -0.51947
H         -5.76407       -8.06311        1.00153
H         -6.02014       -5.09426        8.35969
H         -7.13178       -6.41640        8.67618
H         -7.88856       -3.46935        8.26533
H         -7.93245       -4.37565        9.78777
H         -9.06764       -4.77216        8.48542
H         -8.08387       -8.20825        7.54751
H        -10.54135       -7.28149        5.92885
H        -10.21746       -9.37488       11.84034
H         -9.07218      -10.61209       11.15950
H        -14.23020      -11.25140        7.41172
H        -12.58328      -13.07227        9.27995
H        -13.36345      -15.43494        8.81198
H        -15.28448      -16.97166        8.64131
H        -16.07869      -12.10516        8.40370
H        -20.19518      -13.97711        7.95747
H        -19.81762      -16.46336        8.07827
