132

C         -2.21178       -0.21525        0.90065
C         -2.28311       -1.30781        0.10634
C         -2.97335       -2.49237        0.49436
N         -3.54229       -3.45409        0.81511
C         -1.62128       -1.36995       -1.15591
N         -1.10255       -1.40856       -2.19283
C         -2.77899       -0.06342        2.27524
C         -2.08466        0.97816        2.90484
C         -2.43474        1.50407        4.13226
C         -3.56869        0.99216        4.75959
C         -4.28417       -0.09288        4.17360
C         -3.87316       -0.62427        2.92681
C         -5.42247       -0.57575        4.83999
C         -5.86905        0.02188        6.02303
C         -5.18487        1.10708        6.56310
C         -4.03371        1.58232        5.94035
C         -1.09380        1.57524        1.99934
O         -0.23201        2.36848        2.31215
C         -1.44096        1.02183        0.65514
C         -1.35253        1.72566       -0.48268
C         -0.82820        3.04866       -0.57159
S         -1.92337        4.37387       -0.66839
C         -0.67202        5.52037       -0.97983
C          0.54265        4.86432       -1.10009
C          0.47714        3.49561       -0.66859
C          1.67536        2.69196       -0.47225
O          1.66268        1.52082       -0.11022
C          2.96796        3.38982       -0.71835
C          4.15617        2.72935       -0.38365
C          5.38947        3.34030       -0.61445
C          5.46021        4.61572       -1.19044
C          6.79819        5.27252       -1.43480
C          7.59219        5.49449       -0.15296
C          4.26906        5.26939       -1.54050
C          3.02326        4.67449       -1.28151
C          1.78615        5.45115       -1.57495
O          1.83651        6.50162       -2.20278
C         -0.99871        6.89674       -1.08159
N         -0.80411        7.85489       -0.07931
C         -0.13915        7.69019        1.19429
C         -0.91019        6.85540        2.20044
C         -1.29358        9.11612       -0.47471
O         -1.32881       10.16059        0.14448
C         -1.78471        8.86576       -1.83867
C         -1.58268        7.47151       -2.13738
C         -2.12005        7.22578       -3.48554
O         -2.14046        6.17186       -4.08824
N         -2.62025        8.49346       -3.86175
C         -3.28852        8.70732       -5.13151
C         -2.33047        9.14159       -6.22674
C         -2.37126        9.45767       -2.88027
C         -2.81134       10.82217       -2.98211
C         -2.19373       11.87729       -2.42186
C         -2.72087       13.20931       -2.43811
S         -4.22779       13.56849       -3.21575
C         -4.23588       15.18954       -2.71435
C         -3.11491       15.46674       -1.95356
C         -2.19124       14.36822       -1.87420
C         -0.87623       14.53084       -1.23452
O         -0.07125       13.61929       -1.05381
C         -0.49929       15.93064       -0.86263
C          0.81445       16.22993       -0.46982
C          1.19311       17.55788       -0.20966
C          0.27160       18.60972       -0.33561
C          0.71019       20.03731       -0.08545
C         -0.35183       21.10945       -0.32995
C         -1.04250       18.29229       -0.68892
C         -1.42879       16.97165       -0.94302
C         -2.83788       16.74381       -1.33129
O         -3.69095       17.60279       -1.13738
C         -5.30289       16.04678       -3.11755
C         -5.17288       16.88338       -4.16095
C         -5.96074       18.09110       -4.47252
C         -7.30841       18.19994       -4.49230
C         -7.96994       19.37953       -4.93845
N         -8.49966       20.34174       -5.31360
C         -8.15227       17.10601       -4.13365
N         -8.82975       16.22184       -3.83773
C         -4.95702       19.11027       -4.89614
C         -3.75436       18.44174       -5.17373
C         -3.90409       17.00263       -4.94815
O         -3.14093       16.13860       -5.32047
C         -2.54854       19.07539       -5.40441
C         -2.52768       20.46590       -5.32230
C         -3.73814       21.18704       -5.09853
C         -4.95599       20.49719       -4.89429
C         -3.67941       22.58630       -5.03195
C         -2.45719       23.25653       -5.12993
C         -1.27496       22.54080       -5.29839
C         -1.31070       21.15262       -5.40677
H         -1.88024        2.34566        4.53641
H         -4.47022       -1.40964        2.47120
H         -5.98781       -1.41335        4.43571
H         -6.76194       -0.35210        6.51821
H         -5.54744        1.58872        7.46775
H         -3.51639        2.43738        6.37138
H         -1.78721        1.34737       -1.40374
H          4.12806        1.73934        0.06937
H          6.29884        2.80879       -0.33891
H          6.65735        6.24102       -1.92971
H          7.37544        4.64919       -2.12790
H          7.04110        6.13075        0.54779
H          8.54560        5.98221       -0.37949
H          7.81574        4.55097        0.35590
H          4.30744        6.25542       -2.00392
H          0.01002        8.68407        1.63632
H          0.85849        7.27711        1.01697
H         -1.90943        7.26655        2.37597
H         -0.37505        6.83754        3.15553
H         -1.02125        5.82185        1.86837
H         -4.09479        9.43864       -5.01524
H         -3.76510        7.76672       -5.43036
H         -1.84858       10.09272       -5.97941
H         -2.86849        9.26775       -7.17191
H         -1.54510        8.39434       -6.37760
H         -3.73587       10.95724       -3.53154
H         -1.27032       11.72180       -1.86873
H          1.55800       15.43776       -0.38113
H          2.22272       17.76744        0.08120
H          1.56771       20.25622       -0.73366
H          1.04843       20.11738        0.95421
H         -0.68480       21.10606       -1.37460
H          0.04450       22.10426       -0.10812
H         -1.22899       20.95455        0.30876
H         -1.79245       19.07284       -0.79516
H         -6.14161       16.12184       -2.43207
H         -1.64637       18.48917       -5.55431
H         -5.84948       21.06637       -4.65382
H         -4.58512       23.17130       -4.88416
H         -2.42725       24.34106       -5.06116
H         -0.32253       23.06259       -5.34505
H         -0.37574       20.60960       -5.53197
