115

C        -12.36879        0.41872       -0.00074
C        -13.72972        0.14097       -0.09112
F        -14.58216        1.13434       -0.37757
C        -14.20306       -1.14682        0.11433
F        -15.51460       -1.40584        0.02651
C        -13.32427       -2.18177        0.41465
C        -11.94970       -1.92525        0.51963
C        -11.45857       -0.60214        0.30873
C        -10.07693       -0.32925        0.41216
C         -9.19252       -1.34830        0.74307
C         -9.70765       -2.63890        0.91651
C        -11.05497       -2.95409        0.81983
C         -8.62662       -3.60204        1.14405
O         -8.78797       -4.77145        1.42199
C         -7.34851       -2.83381        0.95327
C         -7.71342       -1.40193        0.94000
C         -6.90249       -0.34999        1.22150
C         -5.52212       -0.50231        1.53673
N         -4.39475       -0.62346        1.78241
C         -7.37648        0.98961        1.28056
N         -7.76363        2.07780        1.31306
C         -6.16662       -3.41764        0.70338
C         -5.92845       -4.83464        0.60414
C         -5.02735       -5.49388        1.36890
C         -5.05655       -6.91350        0.99549
C         -6.07286       -7.02008       -0.06676
C         -6.54822       -5.78691       -0.29207
C         -6.49367       -8.14740       -0.80552
N         -6.85494       -9.04883       -1.43697
C         -4.27482       -7.88513        1.50941
C         -4.33413       -9.29824        1.14740
C         -3.32500       -9.97027        1.74539
C         -2.60944       -8.99582        2.57330
C         -3.17677       -7.78012        2.47641
C         -2.74075       -6.64688        3.20181
N         -2.37486       -5.72231        3.80142
C         -3.05091      -11.41902        1.58324
C         -2.46337      -12.25223        2.59085
O         -2.38009      -11.60621        3.80901
C         -1.38882      -11.94252        4.76147
C         -2.16383      -13.64543        2.38816
O         -1.51901      -14.31059        3.41055
C         -0.46009      -15.19692        3.03933
C         -2.60898      -14.35154        1.23544
C         -3.22343      -13.57462        0.21461
C         -3.40700      -12.08705        0.36856
N         -3.92460      -11.53558       -0.74463
S         -4.34613      -12.76390       -1.76692
N         -3.70989      -14.05000       -0.94526
C         -2.63147      -15.81152        1.07753
C         -3.53504      -16.64305        1.64926
N         -4.70685      -16.20453        2.36752
O         -5.09831      -16.94031        3.28184
O         -5.29135      -15.18603        1.97547
C         -3.31099      -18.02250        1.28394
C         -2.35108      -18.06377        0.34974
C         -1.89429      -16.69023        0.12224
C         -1.00523      -16.32859       -0.82241
C         -0.17970      -15.12307       -0.76842
C          0.66895      -15.16511       -1.80386
C          0.34864      -16.32583       -2.60523
N          0.97195      -16.56229       -3.88840
O          0.32519      -17.13730       -4.77202
O          2.12715      -16.13500       -4.02559
C         -0.65291      -17.06372       -2.07132
C         -1.24500      -18.24569       -2.67693
C         -2.52979      -18.55014       -2.93551
C         -3.73191      -17.77376       -2.69021
C         -4.85746      -18.18681       -2.07292
C         -5.88992      -17.16880       -1.66468
O         -6.10824      -16.08881       -2.16927
C         -6.55613      -17.73794       -0.47000
C         -7.44857      -17.09091        0.37314
C         -7.82103      -17.72744        1.57031
C         -7.27878      -19.00918        1.88537
C         -7.58833      -19.60819        3.11647
C         -8.42287      -18.95995        4.01993
C         -8.96339      -17.72050        3.71187
C         -8.67141      -17.10224        2.49776
F         -9.76723      -17.10270        4.58851
F         -8.69643      -19.54583        5.19413
C         -6.41119      -19.65105        0.98284
C         -6.06396      -19.02515       -0.20868
C         -5.19838      -19.42562       -1.35390
C         -5.05545      -20.70301       -1.77131
C         -4.70067      -21.01023       -3.11229
N         -4.45735      -21.27145       -4.21945
C         -5.35691      -21.82687       -0.95336
N         -5.55905      -22.72921       -0.25158
H        -12.03765        1.44065       -0.16783
H        -13.72785       -3.17963        0.56607
H         -9.73473        0.68161        0.21458
H        -11.38274       -3.98035        0.96435
H         -5.27410       -2.83631        0.49557
H         -4.42915       -5.02949        2.13409
H         -7.30533       -5.52098       -1.02308
H         -5.07666       -9.74862        0.51340
H         -1.76484       -9.24049        3.20039
H         -1.44920      -11.18936        5.55579
H         -0.38794      -11.88394        4.32597
H         -1.58236      -12.90444        5.23911
H          0.40853      -15.00231        3.67481
H         -0.12035      -15.07956        2.01036
H         -0.78270      -16.22796        3.21145
H         -3.82335      -18.86530        1.71869
H         -1.93279      -18.95682       -0.08816
H         -0.14215      -14.38032        0.00871
H          1.46110      -14.46359       -2.01942
H         -0.50646      -18.97458       -3.02296
H         -2.67759      -19.47469       -3.48756
H         -3.66553      -16.72712       -2.99870
H         -7.79219      -16.08685        0.13386
H         -7.17348      -20.57207        3.40016
H         -9.09298      -16.11955        2.30388
H         -5.98619      -20.60891        1.26906
