98

C          0.27514       -1.61370       -0.32251
N          0.29975       -1.05662        0.94838
C          0.95161       -1.66878        2.08786
C          0.03076       -2.61367        2.84162
C         -0.39612        0.16919        1.00077
O         -0.59326        0.91800        1.93533
C         -0.84915        0.34167       -0.39686
C         -0.39577       -0.80502       -1.14044
C         -0.83237       -0.65369       -2.53303
O         -0.62822       -1.42356       -3.44853
N         -1.51072        0.58329       -2.50772
C         -2.06348        1.15447       -3.71760
C         -3.47715        0.66639       -3.98699
C         -1.50820        1.15273       -1.23013
C         -2.12134        2.41998       -0.92357
C         -1.43758        3.43723       -0.37452
C         -1.96223        4.75609       -0.08936
C         -1.63033        5.88623       -0.76626
N         -0.72410        5.94156       -1.89142
O         -0.65988        4.96565       -2.65221
O         -0.09400        6.99660       -2.04605
C         -2.23029        7.06583       -0.19594
C         -2.96480        6.69404        0.85884
C         -2.89472        5.23027        0.99359
C         -3.52734        4.51787        1.95818
C         -3.32888        3.09503        2.22850
C         -4.02441        2.77131        3.32907
C         -4.73140        3.94455        3.78994
N         -5.63030        3.92542        4.92961
O         -6.43517        4.85183        5.08580
O         -5.53729        2.95000        5.68961
C         -4.49842        5.00998        2.99169
C         -5.13402        6.30207        3.10118
C         -5.90781        6.81089        2.13089
C         -6.51538        8.10821        2.21428
C         -5.83683        9.26241        2.38721
C         -6.79643       10.36931        2.38909
C         -8.11956        9.73758        2.23601
C         -7.92764        8.41535        2.11017
C         -9.39494       10.33775        2.23048
N        -10.45293       10.82491        2.21907
C         -6.48269       11.67868        2.48018
C         -7.43873       12.78196        2.44024
C         -6.76372       13.94794        2.48679
C         -5.34559       13.64121        2.59331
C         -5.16254       12.31066        2.60371
C         -3.89369       11.70296        2.73438
N         -2.85163       11.20199        2.83952
C         -7.43087       15.22511        2.47998
C         -6.81805       16.41654        2.46196
C         -7.52775       17.69922        2.46623
C         -7.04849       18.81607        1.76778
F         -5.90799       18.69057        1.06603
C         -7.69197       20.07372        1.75452
F         -7.05077       21.05995        1.10490
C         -8.91966       20.36240        2.39887
C         -9.44798       19.25654        3.13758
C         -8.72347       17.92017        3.20424
N         -9.33265       17.04946        4.02892
S        -10.69202       17.78226        4.61106
N        -10.60522       19.23046        3.82181
C         -9.60303       21.66300        2.35149
C        -10.23226       22.28003        3.46315
F        -10.13723       21.69701        4.67040
C        -10.93203       23.50778        3.41680
F        -11.52082       23.94857        4.53951
C        -11.03652       24.30151        2.27586
C        -10.39602       23.78549        1.13279
C         -9.69182       22.43878        1.15227
N         -9.21836       22.11111       -0.06293
S         -9.49170       23.39790       -1.06926
N        -10.33378       24.40261       -0.05568
H          0.75314       -2.55451       -0.55378
H          1.28654       -0.87460        2.76391
H          1.83990       -2.20662        1.73701
H         -0.84279       -2.08327        3.23419
H          0.56229       -3.06825        3.68380
H         -0.32909       -3.41825        2.19190
H         -1.42578        0.84702       -4.55543
H         -2.02790        2.24736       -3.67000
H         -3.52643       -0.42789       -3.98967
H         -3.82184        1.02416       -4.96233
H         -4.17072        1.03072       -3.22312
H         -3.17350        2.52580       -1.17550
H         -0.37023        3.32480       -0.17996
H         -2.05433        8.07755       -0.52970
H         -3.44068        7.39579        1.51981
H         -2.69703        2.40684        1.69799
H         -4.06475        1.80060        3.80028
H         -4.99282        6.84285        4.03694
H         -6.08833        6.25783        1.21125
H         -4.76676        9.32775        2.48685
H         -8.69268        7.66187        1.98961
H         -8.51240       12.71240        2.38620
H         -4.57104       14.38972        2.67367
H         -8.52016       15.17347        2.48636
H         -5.73432       16.48769        2.40022
H        -11.56070       25.24776        2.27797
