98

C         -2.85833       -0.73679       -4.20419
N         -3.03959        0.42870       -4.93421
C         -2.79984        0.61159       -6.34700
C         -3.11569       -0.59908       -7.20017
C         -3.37371        1.51472       -4.11194
O         -3.53960        2.68154       -4.45295
C         -3.45197        0.89365       -2.76688
C         -3.10548       -0.48922       -2.91472
C         -3.16428       -1.13804       -1.59946
O         -2.95108       -2.30771       -1.35644
N         -3.54431       -0.08460       -0.74795
C         -3.78761       -0.29571        0.66607
C         -2.84174        0.46165        1.59056
C         -3.72701        1.10980       -1.47517
C         -4.16018        2.32659       -0.85454
C         -4.21262        3.48484       -1.50814
C         -4.59225        4.72153       -0.91938
C         -4.21138        5.86279       -1.49967
C         -4.67775        7.12714       -1.03063
C         -4.66748        7.47588        0.26261
C         -5.16377        8.72405        0.78009
C         -4.97769        9.96382        0.24991
N         -4.18300       10.32122       -0.92205
O         -3.34604        9.53168       -1.37432
O         -4.38070       11.45085       -1.39398
C         -5.70447       10.96541        0.99329
C         -6.35784       10.38145        2.00793
C         -6.09253        8.93627        1.97067
C         -6.62563        8.02012        2.82795
C         -6.16084        6.63919        2.98330
C         -6.96268        6.00956        3.84922
C         -7.96907        6.93422        4.31209
N         -9.06947        6.44739        5.12472
O         -9.47445        5.30245        4.86983
O         -9.48335        7.12231        6.07145
C         -7.79307        8.17511        3.79559
C         -8.68695        9.31130        3.89705
C         -9.29721        9.75281        5.00538
C        -10.15301       10.90215        5.06263
C         -9.80859       12.07307        4.52150
C        -10.64931       13.22195        4.64402
C        -10.98939       13.93450        3.56707
C        -11.79372       15.11000        3.63237
N        -13.11023       15.18159        4.09906
C        -13.93045       14.04335        4.49707
C        -14.95259       14.35700        5.58243
C        -13.62393       16.48955        3.92919
O        -14.73437       16.93668        4.12968
C        -12.46528       17.23843        3.40973
C        -11.38878       16.31719        3.24354
C        -10.24518       17.04060        2.68311
O         -9.18029       16.56213        2.34646
N        -10.72131       18.37730        2.61085
C         -9.88389       19.37199        1.97321
C         -9.83487       20.74233        2.61636
C        -12.06592       18.44895        3.01026
C        -12.95439       19.57505        2.95889
C        -12.84214       20.71801        3.64499
H         -2.57566       -1.67317       -4.64195
H         -1.75337        0.91394       -6.46776
H         -3.41121        1.45741       -6.68912
H         -2.49217       -1.45411       -6.92412
H         -2.93083       -0.37421       -8.25363
H         -4.16526       -0.88874       -7.08592
H         -3.68009       -1.36473        0.88252
H         -4.83109       -0.03813        0.88098
H         -1.80157        0.17922        1.40554
H         -3.08105        0.24013        2.63612
H         -2.90956        1.54529        1.47128
H         -4.41559        2.31953        0.19684
H         -3.96447        3.56639       -2.55608
H         -5.21852        4.70473       -0.03305
H         -3.58614        5.87154       -2.39380
H         -5.00804        7.78949       -1.82507
H         -4.28010        6.76426        0.98123
H         -5.67526       12.01900        0.75878
H         -6.90748       10.92866        2.75365
H         -5.27404        6.18317        2.58699
H         -6.87385        4.99245        4.20090
H         -8.83329        9.86788        2.97255
H         -9.19513        9.27053        5.96955
H        -11.07905       10.78953        5.62483
H         -8.88182       12.18965        3.96533
H        -11.00205       13.48235        5.63944
H        -10.60452       13.66370        2.58474
H        -13.29050       13.24173        4.87612
H        -14.44014       13.66612        3.60417
H        -14.49409       14.89381        6.41917
H        -15.39712       13.43349        5.96691
H        -15.77150       14.96685        5.18984
H        -10.17646       19.44429        0.92029
H         -8.85546       18.98721        1.97729
H        -10.70719       21.33545        2.33534
H         -8.96163       21.29835        2.26155
H         -9.77107       20.67245        3.70657
H        -13.88224       19.40679        2.41061
H        -11.99902       20.93790        4.28914
H        -13.62465       21.46881        3.58444
