108

C         -3.20020        2.47362       -0.38006
S         -1.50981        2.36243       -0.22210
C         -1.30742        4.06773       -0.36618
C         -2.53138        4.70327       -0.52724
C         -3.62974        3.77333       -0.54013
C         -5.06239        4.18620       -0.69938
C         -5.25435        5.65282       -1.10219
C         -5.33568        5.79193       -2.60647
O         -4.37970        5.96095       -3.34615
O         -6.59806        5.70313       -3.08641
C         -4.19778        6.60575       -0.52881
O         -4.44647        6.75687        0.87987
C         -2.74102        6.17470       -0.76114
C          0.02293        4.57194       -0.36644
C          0.40245        5.61738        0.38543
C          1.75035        6.09415        0.37842
S          1.99716        7.80559        0.44396
C          3.71451        7.69731        0.30213
C          4.09970        6.36748        0.34579
C          2.97505        5.45271        0.35211
C          3.12172        4.05407        0.35736
C          4.46420        3.62671        0.29919
S          4.78569        1.86282        0.19421
C          5.56249        4.54008        0.32676
O          6.85556        4.06650        0.30214
C          5.43618        5.93827        0.37385
C          4.44604        8.92227        0.19297
C          5.57821        8.99699       -0.52127
C          6.41457       10.15967       -0.64871
C          6.68153       10.65937       -1.87076
C          7.55320       11.78534       -1.71133
C          8.13581       12.56893       -2.87621
N          8.61913       13.21898       -3.84258
C          7.87071       12.02374       -0.44525
C          7.13908       11.03787        0.30791
C          7.12065       11.02011        1.64073
C          7.59123       12.05522        2.58588
C          7.12449       11.67766        3.79146
C          6.45364       10.40951        3.63618
C          6.51105        9.95831        2.39397
C          5.87986        9.62013        4.80154
N          5.40386        8.96528        5.76830
C          8.22922       13.32075        2.44508
S          7.29967       14.66665        1.87248
C          8.61536       15.77702        1.97652
C          9.72553       15.14810        2.50139
C          9.51397       13.73756        2.74920
C         10.49954       12.88478        3.27547
C         11.70969       13.56268        3.55899
S         13.06954       12.60196        4.23592
C         11.89372       14.96721        3.32614
O         13.08938       15.56982        3.65446
C         10.92003       15.82287        2.77791
C          8.38960       17.13907        1.63202
C          8.46711       17.56631        0.35854
C          8.22622       18.92663       -0.04278
S          7.79207       20.14063        1.09411
C          7.68286       21.38712       -0.07215
C          7.91606       20.88257       -1.34307
C          8.27359       19.47794       -1.32274
C          8.60283       18.72915       -2.59223
C          8.88356       19.64064       -3.79727
C         10.30809       20.16744       -3.80571
O         10.62038       21.34545       -3.75992
O         11.24492       19.19933       -3.93713
C          7.86982       20.79262       -3.88432
O          6.56780       20.24378       -4.14957
C          7.83350       21.67439       -2.62524
C          7.35542       22.68988        0.40707
C          7.80265       23.81573       -0.16103
H         -3.80032        1.57363       -0.35713
H         -5.55491        4.02285        0.26845
H         -5.55516        3.52050       -1.41951
H         -6.22416        5.97613       -0.69936
H         -7.29623        5.59861       -2.41257
H         -4.32794        7.60583       -0.95925
H         -4.02727        6.00779        1.34259
H         -2.10353        6.75835       -0.09094
H         -2.43268        6.40286       -1.78756
H          0.73334        4.04876       -0.99895
H         -0.31178        6.14764        1.00826
H          2.30352        3.34877        0.39973
H          3.73327        1.56697       -0.58577
H          6.79072        3.09206        0.29057
H          6.31107        6.57031        0.42450
H          4.05949        9.80208        0.70310
H          5.91947        8.14675       -1.10761
H          6.31991       10.28867       -2.81854
H          8.57068       12.76456       -0.10230
H          7.21223       12.21223        4.72623
H          6.19244        8.98583        2.06772
H         10.36194       11.82923        3.46290
H         13.39329       11.98975        3.08624
H         13.63315       14.89449        4.10206
H         11.10016       16.87991        2.62548
H          8.15462       17.80335        2.45921
H          8.71533       16.85122       -0.42377
H          7.74468       18.08670       -2.83131
H          9.45353       18.06282       -2.41116
H          8.77923       19.03894       -4.71123
H         10.89940       18.29329       -4.04290
H          8.09947       21.43228       -4.74510
H          6.14144       20.04596       -3.29546
H          6.90805       22.26348       -2.62403
H          8.67522       22.37302       -2.65269
H          6.75551       22.77063        1.31177
H          8.45378       23.82982       -1.02630
H          7.54379       24.77991        0.26471
