126

C         -3.26718       -1.19915        1.13011
S         -4.49979       -0.10734        1.58419
C         -3.52920        1.26921        1.21490
C         -2.27993        0.87523        0.75436
C         -2.13463       -0.54726        0.69735
C         -0.92383       -1.19365        0.21864
O         -0.73434       -2.40105        0.28996
C          0.08143       -0.28753       -0.40459
C          1.16688       -0.84579       -1.09134
C          2.07053       -0.01895       -1.76716
C          1.91176        1.37542       -1.76312
C          2.87797        2.23920       -2.54397
C          2.28698        3.54000       -3.08122
C          0.86691        1.92734       -1.00942
C         -0.06079        1.10737       -0.35264
C         -1.20391        1.76199        0.34457
O         -1.21251        2.97109        0.54062
C         -4.06863        2.56346        1.38940
N         -4.06490        3.28975        2.57908
C         -3.45071        2.88675        3.82690
C         -4.46306        2.74823        4.95410
C         -4.63585        4.56807        2.40099
O         -4.77346        5.47965        3.18946
C         -5.02597        4.55446        0.98074
C         -4.63017        3.29110        0.42108
C         -4.98938        3.30378       -1.01103
O         -4.76570        2.43352       -1.82697
N         -5.61699        4.55888       -1.16135
C         -6.07357        5.05546       -2.44683
C         -4.98791        5.81565       -3.19293
C         -5.60204        5.28471        0.03027
C         -6.15554        6.60580        0.14260
C         -5.46976        7.65857        0.60702
C         -6.00976        8.98616        0.67399
N         -5.98554        9.76812        1.82722
C         -5.36350        9.42481        3.08856
C         -3.94639        9.97254        3.15675
C         -6.51208       11.05758        1.60171
O         -6.65213       11.98884        2.36367
C         -6.84369       11.01497        0.17003
C         -6.53615        9.70102       -0.32456
C         -6.85294        9.67593       -1.76382
O         -6.71855        8.74347       -2.53283
N         -7.31755       10.98656       -1.99821
C         -7.62229       11.47402       -3.32976
C         -6.41202       12.11725       -3.99029
C         -7.27450       11.76464       -0.83579
C         -7.64099       13.14848       -0.81493
C         -6.80646       14.15903       -0.50282
C         -7.22127       15.52758       -0.59035
S         -8.31218       16.01314       -1.82947
C         -8.44928       17.63801       -1.28529
C         -7.65099       17.79622       -0.15995
C         -6.78634       16.66189        0.07864
C         -5.61659       16.78980        0.95193
O         -4.92681       15.85177        1.32777
C         -5.21134       18.20019        1.24995
C         -3.88431       18.48893        1.59450
C         -3.47055       19.81996        1.74594
C         -4.37714       20.87746        1.57811
C         -3.91763       22.31317        1.66119
C         -4.01605       22.88149        3.06635
C         -5.71861       20.58197        1.30216
C         -6.12516       19.25412        1.11151
C         -7.51318       18.99138        0.65730
O         -8.44194       19.72049        0.98130
C         -9.23257       18.61712       -2.12026
C        -10.43304       18.21363       -2.77318
C        -11.06994       19.11921       -3.65234
N        -12.17413       18.80732       -4.35790
C        -12.67113       17.56771       -4.19808
C        -12.08800       16.66767       -3.34439
N        -10.99223       16.98198       -2.62218
C        -10.55740       20.38129       -3.82801
C         -9.41683       20.80313       -3.18895
C         -8.70758       19.92054       -2.33922
N         -7.53842       20.36285       -1.79572
C         -7.16518       21.64224       -2.02731
C         -7.89461       22.47966       -2.83261
N         -9.01925       22.06427       -3.43860
H         -3.43343       -2.26796        1.18374
H          1.29921       -1.92651       -1.13068
H          2.89148       -0.47601       -2.31893
H          3.24649        1.66766       -3.40555
H          3.74139        2.46350       -1.90777
H          1.40113        3.34721       -3.69650
H          3.02268        4.06565       -3.69737
H          1.99845        4.21908       -2.27243
H          0.74015        3.00673       -0.95244
H         -2.71436        3.65298        4.09667
H         -2.91165        1.94254        3.70255
H         -4.93609        3.70815        5.18459
H         -3.96977        2.39288        5.86418
H         -5.25460        2.04038        4.68896
H         -6.95697        5.68648       -2.30617
H         -6.38491        4.19667       -3.05412
H         -4.63772        6.67966       -2.61818
H         -5.37081        6.17869       -4.15183
H         -4.12317        5.17437       -3.39026
H         -7.18500        6.72246       -0.19376
H         -4.44387        7.54411        0.94590
H         -5.37428        8.34014        3.23342
H         -5.95769        9.87138        3.89337
H         -3.32485        9.55550        2.35758
H         -3.48542        9.73045        4.11802
H         -3.94152       11.06221        3.04088
H         -8.45790       12.17971       -3.27979
H         -7.94998       10.62601       -3.94231
H         -6.03901       12.96308       -3.40420
H         -6.67167       12.48434       -4.98782
H         -5.59262       11.39792       -4.09160
H         -8.66984       13.33747       -1.11008
H         -5.79057       13.95282       -0.17424
H         -3.15617       17.68624        1.70224
H         -2.42533       20.02781        1.97263
H         -4.51616       22.92658        0.97524
H         -2.88390       22.39101        1.30178
H         -5.04229       22.83295        3.44480
H         -3.70325       23.93102        3.06994
H         -3.37126       22.33353        3.76088
H         -6.44335       21.38497        1.17578
H        -13.55352       17.32375       -4.77711
H        -12.47430       15.66386       -3.21511
H        -11.06540       21.06566       -4.50437
H         -6.25915       21.97655       -1.53642
H         -7.59906       23.50504       -3.01970
