62

C         -0.35484        0.93962       -1.98237
S          0.64048        1.86950       -0.91628
C         -0.67071        2.87347       -0.33677
C         -1.78831        2.45250       -0.97635
C         -1.60263        1.41256       -1.85819
N         -2.74935        1.02651       -2.47619
N         -3.79355        1.79833       -2.03539
C         -3.20643        2.65515       -1.13525
C         -0.50132        3.92552        0.63242
O         -1.56951        4.69236        1.04351
C         -1.14901        5.62556        1.96150
C          0.20933        5.44717        2.14577
C          0.61959        4.37970        1.31211
C          1.95556        3.89865        1.22578
N          3.05715        3.53127        1.18455
C         -1.98204        6.58042        2.59704
C         -3.29637        6.64709        2.34411
C         -4.13223        7.58864        3.01478
S         -5.53297        8.17205        2.21130
C         -5.96183        9.23148        3.49090
C         -5.10671        9.06154        4.56486
C         -4.05088        8.14535        4.27986
O         -3.00167        7.86861        5.09379
C         -3.40362        7.35841        6.35943
C         -3.86985        8.47014        7.28557
C         -5.24458        8.99311        6.88124
O         -5.22341        9.79654        5.70000
C         -7.11145       10.10218        3.39077
O         -7.85710       10.43714        4.49614
C         -8.89419       11.26699        4.13653
C         -8.80505       11.46545        2.76901
C         -7.68485       10.73437        2.29808
C         -7.24236       10.69212        0.94379
N         -6.91106       10.67411       -0.17031
C         -9.85386       11.79373        5.04806
C         -9.78339       11.49225        6.35361
C        -10.68587       11.98638        7.32476
S        -10.19129       12.29602        8.97136
C        -11.77149       12.82411        9.47591
C        -12.58970       12.71990        8.41148
C        -12.00465       12.25814        7.25416
N        -12.90982       12.14300        6.24246
N        -14.14946       12.55419        6.66673
C        -13.94446       12.89721        7.97877
H          0.03326        0.14283       -2.60061
H         -2.88728        0.29472       -3.16391
H         -3.83758        3.38242       -0.64089
H          0.83349        6.02759        2.81411
H         -1.50801        7.25973        3.29998
H         -3.75068        5.98603        1.60945
H         -4.15208        6.56226        6.24847
H         -2.51423        6.88753        6.79453
H         -3.14274        9.29027        7.26433
H         -3.92315        8.07650        8.30647
H         -5.97639        8.18001        6.78470
H         -5.60855        9.64391        7.68417
H         -9.47264       12.07638        2.17477
H        -10.61365       12.45768        4.64947
H         -8.96318       10.87332        6.71589
H        -11.96478       13.14061       10.49070
H        -12.77557       11.79148        5.30284
H        -14.79009       13.25057        8.55486
