62

C         -2.07701        0.37293       -2.96199
S         -1.60274        1.93496       -3.54380
C         -1.96439        2.75176       -2.04082
C         -2.43565        1.81429       -1.18704
C         -2.48561        0.53673       -1.69488
N         -2.95475       -0.37219       -0.80028
N         -3.24816        0.25481        0.38448
C         -2.92868        1.56956        0.14373
C         -1.77478        4.16189       -1.85510
O         -2.55869        4.88290       -0.99215
C         -2.15421        6.19620       -0.98243
C         -1.09623        6.31637       -1.86756
C         -0.85690        5.03403       -2.41540
C          0.17040        4.72188       -3.34578
N          1.02376        4.50088       -4.10696
C         -2.74963        7.19858       -0.17961
C         -3.78273        6.91152        0.62718
C         -4.41691        7.89212        1.46319
C         -3.81579        8.97874        2.01226
C         -4.82285        9.60549        2.74044
N         -4.87460       10.72452        3.48345
C         -6.17234       10.81479        3.97268
C         -6.90665        9.72663        3.50149
C         -6.03361        8.98350        2.71181
C         -5.92064        7.77626        1.86659
C         -6.49086       11.90621        4.80776
C         -7.44822       11.78843        5.74070
C         -7.83053       12.84791        6.62501
C         -8.73683       12.82714        7.58860
C         -8.71567       14.10207        8.17074
C         -7.72462       14.91128        7.46506
O         -7.43255       16.07433        7.67234
O         -7.17168       14.09738        6.48992
C         -9.60096       14.05854        9.15020
O        -10.25905       12.80539        9.28289
C         -9.72660       12.00792        8.28069
O        -10.02532       10.85700        8.02788
C         -9.93037       15.10696       10.03505
S        -10.46673       14.76775       11.66686
C         -9.92969       16.46830        9.87348
N         -9.63097       17.32476        8.87660
C         -9.71590       18.67193        9.48236
O        -10.23780       18.53149       10.84452
C        -10.30045       17.19427       10.99533
C        -10.64415       16.43807       12.07274
H         -2.02531       -0.51807       -3.57116
H         -3.09591       -1.36891       -0.91841
H         -3.06578        2.28227        0.94697
H         -0.54745        7.22271       -2.09165
H         -2.33893        8.20305       -0.23495
H         -4.19434        5.90546        0.68344
H         -2.79029        9.29680        1.90536
H         -4.10916       11.35865        3.66713
H         -7.94759        9.52631        3.71747
H         -6.57273        7.84126        0.99019
H         -6.11436        6.86371        2.43655
H         -5.93593       12.83214        4.68285
H         -7.97407       10.84416        5.88368
H         -8.80521       17.17174        8.29174
H        -10.39725       19.30892        8.90965
H         -8.72561       19.13730        9.53910
H        -10.97269       16.74998       13.05314
