67

C          3.25171       -8.41200        1.07107
C          3.11873       -9.76408        0.90723
S          4.59046      -10.56430        1.35650
C          5.36198       -9.09225        1.73955
Cl         6.99782       -9.08958        2.24633
C          4.53802       -8.02957        1.53284
C          4.69268       -6.60609        1.62657
O          5.57046       -5.97070        2.17444
C          3.43143       -6.11004        0.92099
C          2.44491       -7.23903        0.85003
C          1.10047       -7.17287        0.73565
C          0.28157       -8.34511        0.76196
N         -0.36894       -9.30160        0.78465
C          0.41152       -5.92894        0.64940
N         -0.12198       -4.90092        0.58024
C          3.40394       -4.94995        0.24071
C          4.53968       -4.10504        0.14042
S          5.64940       -4.28888       -1.19463
C          6.67059       -3.00436       -0.65623
C          6.16312       -2.46642        0.48984
C          4.98446       -3.08186        0.92630
C          4.57487       -2.43118        2.11316
C          5.43111       -1.42892        2.43171
C          6.53379       -1.40541        1.38136
O          7.49579       -0.66529        1.29968
C          5.31907       -0.53069        3.55083
C          6.17675        0.46653        3.82491
C          6.01991        1.33774        4.93760
S          4.45093        1.75999        5.58641
C          5.10676        2.77342        6.80910
C          6.46398        2.80676        6.69683
C          6.96733        2.02163        5.65452
C          8.38178        2.15383        5.67268
C          8.78047        2.97764        6.67532
C          7.52571        3.45415        7.40317
O          7.43278        4.20120        8.35730
C         10.13318        3.34748        7.01833
C         10.45359        4.17258        8.02749
C         11.79578        4.51739        8.32949
O         12.89642        4.06885        7.64047
C         14.02963        4.61234        8.18734
C         13.65874        5.40280        9.25611
C         12.24559        5.34710        9.34431
N         14.50901        6.11329       10.15064
O         15.22548        6.99813        9.67015
O         14.40775        5.82477       11.34829
C         15.26261        4.21229        7.52174
C         16.37775        5.04792        7.44626
C         17.53927        4.62041        6.80511
C         17.54947        3.36333        6.23009
N         16.49310        2.52609        6.25620
C         15.38087        2.96920        6.89682
H          2.28836      -10.35353        0.54140
H          2.55931       -4.66683       -0.37906
H          7.56203       -2.71964       -1.19931
H          3.69157       -2.70930        2.67269
H          4.46070       -0.70853        4.19617
H          7.05299        0.63648        3.20496
H          4.47420        3.28088        7.52386
H          9.04259        1.65193        4.97662
H         10.92077        2.91463        6.40313
H          9.69146        4.61887        8.65921
H         11.61950        5.85477       10.06725
H         16.36667        6.05249        7.85343
H         18.41044        5.26419        6.75362
H         18.43044        2.99070        5.71567
H         14.55752        2.25773        6.89049
