109

C         -7.98737        3.79401      -10.54004
N         -6.74442        4.26875      -10.93982
C         -6.24064        4.20743      -12.29588
C         -6.64092        5.41999      -13.12098
C         -6.02963        4.84017       -9.86587
O         -4.93064        5.35661       -9.84426
C         -6.95815        4.66198       -8.73120
C         -8.14045        4.01495       -9.23054
C         -9.06785        3.83005       -8.11111
O        -10.16361        3.29529       -8.14968
N         -8.37233        4.40221       -7.02636
C         -8.90815        4.39226       -5.68181
C         -8.48814        3.16383       -4.89057
C         -7.11311        4.86921       -7.42182
C         -6.15693        5.46754       -6.53580
C         -6.34834        6.64006       -5.91228
C         -5.35669        7.21373       -5.06509
S         -5.84478        7.74579       -3.49984
C         -4.30696        8.44756       -3.11502
C         -3.42124        8.21574       -4.15027
C         -4.01929        7.50499       -5.25831
C         -3.34276        7.24122       -6.45684
C         -2.00761        7.71856       -6.47169
C         -1.26956        7.50887       -7.72201
C         -1.32468        8.39908       -8.71937
C         -1.39955        8.41475       -5.36855
C          0.02068        8.92207       -5.45454
C         -2.10995        8.71285       -4.18125
C         -4.23652        9.21973       -1.91574
C         -3.11029        9.41637       -1.20886
C         -2.89212       10.37807       -0.07265
C         -3.83195       11.36395        0.27018
C         -3.66225       12.12954        1.44732
N         -4.61028       13.04682        1.77934
C         -5.65620       13.24398        0.94958
C         -5.80514       12.51731       -0.19378
N         -4.90428       11.58503       -0.52902
C         -2.51795       11.92123        2.24176
C         -1.45844       11.11789        1.75279
C         -1.65982       10.32334        0.59887
N         -0.66432        9.52137        0.13018
C          0.51893        9.51921        0.77024
C          0.72487       10.29381        1.87829
N         -0.24558       11.08922        2.37163
C         -2.43556       12.49199        3.62648
S         -1.94011       11.44014        4.92456
C         -1.98772       12.66573        6.13865
C         -2.47039       13.82628        5.58937
C         -2.74448       13.68268        4.21670
C         -3.27919       14.91823        3.74302
C         -3.36609       15.91694        4.72266
C         -3.85499       17.31735        4.52230
S         -2.77581       15.46677        6.30456
C         -1.55981       12.39776        7.49961
S         -0.03468       11.59501        7.74123
C         -0.21650       11.47536        9.44720
C         -1.38719       12.09052        9.83621
C         -2.15177       12.63571        8.73063
C         -3.37761       13.29304        8.92130
C         -3.76399       13.41344       10.28416
C         -4.98234       14.19575       10.54475
C         -6.20205       13.64680       10.53204
C         -3.02053       12.83323       11.37543
C         -3.52492       12.94894       12.79691
C         -1.78907       12.15671       11.17843
C          0.80621       10.84232       10.20796
C          0.76212        9.52828       10.46067
H         -8.67425        3.32000      -11.22644
H         -6.60761        3.28931      -12.76808
H         -5.14689        4.14819      -12.25607
H         -7.72991        5.50937      -13.19052
H         -6.24107        5.33565      -14.13677
H         -6.25578        6.34456      -12.67880
H        -10.00258        4.40668       -5.74870
H         -8.61436        5.30381       -5.15649
H         -8.91636        2.25361       -5.32324
H         -8.84032        3.24432       -3.85660
H         -7.40028        3.04817       -4.87244
H         -5.22189        4.92285       -6.41872
H         -7.28318        7.18348       -6.03041
H         -3.78140        6.75608       -7.32027
H         -0.70540        6.58607       -7.80780
H         -1.90423        9.31422       -8.63723
H         -0.79732        8.21831       -9.64933
H          0.68304        8.16345       -5.88061
H          0.41524        9.15670       -4.45810
H          0.05773        9.83343       -6.05789
H         -1.65119        9.30564       -3.40174
H         -5.16309        9.70870       -1.64032
H         -2.23697        8.81798       -1.45661
H         -6.36652       14.00976        1.23326
H         -6.63893       12.64419       -0.87338
H          1.29120        8.88055        0.35783
H          1.67073       10.30055        2.40737
H         -3.59861       15.10011        2.72469
H         -3.92102       17.87770        5.46084
H         -4.84815       17.32050        4.06090
H         -3.16550       17.85033        3.85977
H         -3.99227       13.69727        8.12957
H         -4.84201       15.25580       10.73835
H         -6.34999       12.58900       10.33917
H         -7.08118       14.25435       10.72075
H         -4.58862       12.69997       12.85764
H         -3.36069       13.96167       13.17697
H         -3.00576       12.24601       13.45836
H         -1.22561       11.72935       11.99919
H          1.61946       11.45224       10.59095
H         -0.04115        8.89519       10.09363
H          1.54432        9.05367       11.04538
