87

O         -4.92319        3.81387        2.38490
C         -3.58739        3.51745        2.53965
N         -3.37884        2.43046        3.26204
C         -4.63974        1.96873        3.57350
C         -5.57775        2.81366        3.03456
C         -4.88834        0.77488        4.34702
O         -6.01104        0.35889        4.61829
C         -2.52931        4.30325        1.97838
S         -2.70263        5.99940        1.70603
C         -1.27804        3.90972        1.59397
C         -0.52627        2.68529        1.52573
O         -0.92973        1.55805        1.75708
N          0.72534        3.06745        1.06991
C          1.79670        2.13257        0.79398
C          2.28524        1.43226        2.05054
C          0.81854        4.41308        0.76277
O          1.76103        5.00533        0.26762
C         -0.47200        4.95788        1.10928
C         -1.09087        6.18621        1.08068
C         -0.64698        7.46565        0.66084
C          0.21295        7.60742       -0.35644
C          0.70704        8.87915       -0.79111
N          0.54896        9.35410       -2.08639
C         -0.20581        8.71258       -3.14278
C         -1.66524        9.13783       -3.12858
C          1.04137       10.66663       -2.21909
O          0.96284       11.42101       -3.16667
C          1.59587       10.94614       -0.87781
C          1.35541        9.79006       -0.06241
C          1.85712       10.06471        1.28830
O          1.77559        9.34104        2.26025
N          2.38611       11.37128        1.16453
C          2.83714       12.09970        2.33545
C          4.01461       11.43344        3.03795
C          2.17421       11.88626       -0.12384
C          2.53286       13.22114       -0.53196
C          1.80930       13.94123       -1.40710
C          2.17414       15.29249       -1.82157
C          1.71341       16.43256       -1.14737
C          0.80531       16.44821        0.00981
O          0.31809       15.46629        0.53670
S          0.49132       18.07535        0.55787
C          1.47883       18.76351       -0.70569
O          1.63371       19.96103       -0.84751
C          2.08489       17.72236       -1.54963
C          2.93765       17.93492       -2.64378
C          3.38087       16.78871       -3.30509
C          3.00238       15.52010       -2.92070
C          3.60623       14.58045       -3.85307
O          3.49851       13.37390       -3.86310
O          4.33761       15.32802       -4.71692
C          4.26829       16.65462       -4.44726
O          4.85542       17.54228       -5.02860
C          3.31974       19.27529       -3.08458
C          4.43397       19.89048       -2.65945
C          4.73605       21.21028       -3.09707
N          3.86965       22.11886       -3.53058
C          4.62361       23.23353       -3.82751
C          5.94538       22.95760       -3.59476
O          6.03251       21.69306       -3.10596
C          4.06491       24.47625       -4.30442
O          4.73718       25.45647       -4.61137
H         -6.65773        2.84378        3.01997
H         -3.98327        0.24698        4.69095
H          2.63408        2.66255        0.32623
H          1.42351        1.39330        0.07694
H          2.60258        2.15912        2.80526
H          3.13272        0.78133        1.81656
H          1.49784        0.81405        2.49232
H         -1.03588        8.33978        1.18252
H          0.58069        6.75797       -0.92300
H         -0.11882        7.62461       -3.05716
H          0.24049        8.99949       -4.10160
H         -2.14578        8.87168       -2.18077
H         -2.21194        8.65044       -3.94009
H         -1.75925       10.22164       -3.25446
H          1.99238       12.15467        3.03194
H          3.11354       13.12349        2.07031
H          3.75129       10.44315        3.42257
H          4.33693       12.03867        3.89139
H          4.86377       11.31224        2.35839
H          3.43561       13.63443       -0.09277
H          0.89690       13.55105       -1.85496
H          2.63826       19.76910       -3.77671
H          5.14050       19.42009       -1.98588
H          6.86943       23.50678       -3.70102
H          2.96433       24.49380       -4.37199
