102

C          1.11662        0.45199        4.12641
C          2.49689        0.25958        4.15497
F          3.26686        1.13627        4.81345
C          3.07366       -0.82957        3.51746
F          4.39995       -1.01461        3.55815
C          2.28270       -1.74445        2.83600
C          0.89319       -1.57307        2.79876
C          0.28746       -0.46085        3.45525
C         -1.12073       -0.30452        3.43797
C         -1.91730       -1.23807        2.78263
C         -1.27708       -2.31754        2.16468
C          0.09523       -2.50410        2.14099
C         -2.24551       -3.26832        1.62338
O         -1.93969       -4.22871        0.94939
C         -3.59446       -2.78846        2.07906
C         -3.39492       -1.41120        2.60902
C         -4.33759       -0.45039        2.77879
C         -5.71650       -0.66573        2.48858
N         -6.84095       -0.84022        2.25979
C         -4.02211        0.86993        3.20919
N         -3.76174        1.94558        3.56143
C         -4.67017       -3.59245        2.15465
C         -4.74465       -5.00333        1.79483
C         -4.50033       -5.45312        0.55084
C         -4.45892       -6.86758        0.24233
C         -5.01133       -7.80549        1.04155
C         -5.65909       -7.36178        2.34490
C         -5.05972       -6.01466        2.88472
N         -5.85625       -5.42835        3.98872
C         -7.11237       -5.71632        3.96789
C         -7.76544       -6.55554        2.91331
N         -7.12127       -7.33525        2.11674
F         -9.09822       -6.50454        2.80345
F         -7.87877       -5.23896        4.95621
C         -5.03838       -9.21742        0.62452
C         -5.54696       -9.54766       -0.58532
C         -5.44792      -10.88750       -1.13288
C         -5.20766      -11.95227       -0.34609
C         -5.03510      -11.75110        1.14861
C         -4.41812      -10.33734        1.46575
N         -4.41661      -10.06862        2.92124
C         -5.43100      -10.55936        3.55274
C         -6.51134      -11.36341        2.90338
N         -6.36013      -11.95236        1.77182
F         -7.68102      -11.49078        3.54109
F         -5.52885      -10.31473        4.86541
C         -5.00289      -13.30346       -0.86376
C         -3.95104      -13.56843       -1.66565
C         -3.55990      -14.92633       -1.98321
C         -4.39364      -15.96898       -1.80185
C         -5.80029      -15.72070       -1.28822
C         -5.87908      -14.45307       -0.36295
N         -7.27725      -14.03025       -0.13064
C         -8.09060      -14.22364       -1.10813
C         -7.68940      -14.88373       -2.38488
N         -6.61768      -15.58412       -2.50739
F         -8.47607      -14.73609       -3.45709
F         -9.36324      -13.83345       -0.96952
C         -3.95789      -17.34361       -2.01907
C         -3.49534      -17.85258       -3.17105
C         -2.64281      -19.08536       -3.17737
O         -2.59630      -19.96729       -2.34713
C         -1.78198      -18.94518       -4.37662
C         -0.77518      -19.80247       -4.78775
C         -0.04338      -19.45753       -5.93448
C         -0.29829      -18.21453       -6.59394
C          0.45988      -17.86093       -7.71806
C          1.42449      -18.73223       -8.21050
C          1.65149      -19.95378       -7.59274
C          0.93486      -20.31776       -6.45564
F          2.56376      -20.79929       -8.09085
F          2.12502      -18.38435       -9.29836
C         -1.32487      -17.36765       -6.14344
C         -2.10641      -17.76645       -5.07220
C         -3.37208      -17.25017       -4.49540
C         -4.38783      -16.77494       -5.25857
C         -5.75100      -17.04663       -4.92557
N         -6.85267      -17.38495       -4.78525
C         -4.18606      -16.23524       -6.55739
N         -3.99526      -15.78703       -7.60744
H          0.70556        1.31679        4.64089
H          2.76220       -2.59045        2.35031
H         -1.54899        0.53771        3.97349
H          0.51248       -3.37822        1.64708
H         -5.58405       -3.24173        2.62642
H         -4.23374       -4.77621       -0.25723
H         -3.97806       -7.13252       -0.69671
H         -5.48844       -8.07544        3.14603
H         -4.08823       -6.27124        3.33490
H         -5.98670       -8.79564       -1.23744
H         -5.56597      -10.98863       -2.20840
H         -4.34985      -12.51107        1.54926
H         -3.35869      -10.38066        1.17294
H         -3.27882      -12.77905       -1.99542
H         -2.53712      -15.06378       -2.32552
H         -6.15693      -16.58859       -0.71759
H         -5.47943      -14.74699        0.61791
H         -3.90598      -17.95097       -1.11368
H         -0.58376      -20.72012       -4.23734
H          0.29884      -16.91905       -8.23674
H          1.14023      -21.28304       -6.00049
H         -1.51333      -16.43093       -6.66089
