121

C        -18.12524       -0.16076       -0.01645
C        -18.54532        0.22124        1.25669
F        -19.84979        0.42942        1.48233
C        -17.62996        0.36689        2.28866
F        -18.04546        0.68451        3.52245
C        -16.27325        0.17866        2.05693
C        -15.82219       -0.18107        0.78010
C        -16.76411       -0.39841       -0.27297
C        -16.32607       -0.89926       -1.52224
C        -14.97618       -1.17766       -1.70958
C        -14.07336       -0.87740       -0.67746
C        -14.45877       -0.38070        0.55373
C        -12.74056       -1.42801       -0.98081
O        -11.68644       -1.17347       -0.43903
C        -12.98729       -2.40503       -2.08523
C        -14.22909       -1.93891       -2.75398
C        -14.54524       -2.03809       -4.06452
C        -13.67778       -2.70430       -4.97765
N        -12.95124       -3.26304       -5.68937
C        -15.70816       -1.41404       -4.62512
N        -16.64286       -0.90602       -5.06189
C        -12.36739       -3.59890       -2.14551
C        -11.36109       -4.16499       -1.23237
C        -11.44026       -4.40852        0.11081
N        -12.56292       -4.13615        0.99120
O        -13.59401       -3.63557        0.53032
O        -12.44027       -4.48880        2.17453
C        -10.35502       -5.24940        0.58098
C         -9.64453       -5.66395       -0.47016
C        -10.19544       -5.01919       -1.65566
C         -9.54560       -5.06788       -2.83411
C         -9.37826       -3.89381       -3.68691
C         -8.37209       -4.17059       -4.53404
C         -7.98510       -5.56090       -4.36382
N         -7.07401       -6.23121       -5.26730
O         -7.18723       -7.44696       -5.45837
O         -6.21954       -5.51495       -5.81411
C         -8.66950       -6.15813       -3.36162
C         -8.83501       -7.59864       -3.18568
C         -8.59246       -8.35460       -2.10502
C         -8.81478       -9.78789       -1.94669
C         -8.39593      -10.41987       -0.82703
C         -8.43936      -11.86010       -0.98587
O         -8.08912      -12.56700        0.11973
C         -8.23083      -13.97842        0.10817
C         -8.84522      -12.18381       -2.24022
C         -9.17847      -10.87640       -2.88637
C         -9.91114      -10.77750       -4.01041
C        -10.97635       -9.81077       -4.23064
C        -11.56829      -10.14475       -5.39207
O        -12.68492       -9.67410       -6.00403
C        -13.45388       -8.76906       -5.22094
C        -10.88256      -11.27036       -5.98904
C         -9.91172      -11.67683       -5.15709
C         -9.05641      -13.52327       -2.74675
C        -10.26172      -14.04140       -3.05661
C        -10.39357      -15.30041       -3.72966
S         -9.27347      -16.58176       -3.47409
C         -9.79741      -17.44443       -4.86068
C        -10.99867      -16.93861       -5.33911
C        -11.35938      -15.71706       -4.64094
C        -12.51750      -14.92683       -4.96380
N        -13.45720      -14.29674       -5.22810
C        -11.77874      -17.46980       -6.49936
F        -11.16896      -18.50468       -7.12927
F        -13.00017      -17.91074       -6.11030
F        -11.97955      -16.51225       -7.43931
C         -8.88731      -18.37982       -5.41607
C         -8.84226      -19.70493       -5.23702
C         -9.70923      -20.60613       -4.50650
C         -9.27590      -21.46334       -3.56728
C        -10.14560      -22.37630       -2.74263
O        -11.22822      -22.83467       -3.03172
C         -9.40532      -22.55046       -1.46123
C         -9.79885      -23.22654       -0.32481
C         -9.11483      -22.94367        0.86668
C         -8.09127      -21.94283        0.88108
C         -7.60562      -21.48709        2.11550
C         -8.05735      -22.06350        3.29903
C         -8.94060      -23.13338        3.27030
C         -9.46989      -23.57969        2.06410
F         -9.32187      -23.72378        4.41096
F         -7.63415      -21.57029        4.47083
C         -7.59991      -21.41948       -0.32988
C         -8.22834      -21.78963       -1.50305
C         -7.96250      -21.54997       -2.93388
C         -6.83722      -22.01854       -3.52762
C         -6.87782      -22.48575       -4.87645
N         -6.96321      -22.90873       -5.95347
C         -5.66170      -22.32675       -2.78510
N         -4.71202      -22.57358       -2.16646
H        -18.87864       -0.28623       -0.78983
H        -15.58332        0.28694        2.88985
H        -17.06829       -1.13985       -2.27987
H        -13.71955       -0.26063        1.34095
H        -12.67876       -4.31827       -2.90231
H        -10.13380       -5.45881        1.61736
H         -8.71172       -6.19045       -0.39175
H         -9.83172       -2.92419       -3.54790
H         -7.91206       -3.49200       -5.23745
H         -9.20113       -8.07517       -4.09114
H         -8.10652       -7.89587       -1.25098
H         -7.97529       -9.95798        0.05430
H         -7.95955      -14.35084        1.10099
H         -7.54488      -14.43405       -0.61128
H         -9.26791      -14.27308       -0.07951
H        -11.31104       -9.07897       -3.51556
H        -12.88123       -7.86433       -4.99085
H        -13.80233       -9.24886       -4.29878
H        -14.33253       -8.47765       -5.80240
H        -11.12208      -11.68406       -6.95543
H         -9.19217      -12.45575       -5.35158
H         -8.13322      -14.07048       -2.91908
H        -11.15392      -13.42896       -2.92487
H         -8.09336      -17.93662       -6.01994
H         -8.01519      -20.19813       -5.74766
H        -10.76585      -20.58561       -4.76974
H        -10.64868      -23.90230       -0.35588
H         -6.90225      -20.66092        2.17755
H        -10.17619      -24.40552        2.07951
H         -6.76887      -20.71850       -0.33826
