97

C         -8.51010       -6.02443        0.88294
C         -9.57311       -6.53003        1.62485
C         -9.35379       -7.60766        2.51873
C        -10.47172       -8.08392        3.28971
N        -11.38971       -8.45159        3.90161
C         -8.07278       -8.18345        2.64979
C         -7.84166       -9.29395        3.53492
N         -7.64920      -10.18917        4.24021
C         -7.00678       -7.68616        1.89423
C         -7.25232       -6.62616        1.03003
C         -6.26785       -5.97787        0.14921
O         -5.06838       -6.04991        0.29864
C         -7.06321       -5.10055       -0.77840
C         -8.38508       -4.92077       -0.11886
C         -9.22418       -3.86430       -0.24313
C        -10.39646       -3.70831        0.55208
N        -11.34036       -3.59513        1.21576
C         -8.94661       -2.77394       -1.12236
N         -8.71139       -1.90020       -1.84645
C         -6.66756       -4.70233       -2.00034
C         -5.38083       -5.05537       -2.65487
N         -4.71711       -6.16735       -2.46877
C         -3.64926       -6.04759       -3.29874
C         -3.74808       -4.83415       -4.06453
C         -2.58205       -4.73907       -4.97702
O         -2.32652       -3.88929       -5.80028
C         -1.81007       -5.95572       -4.62634
C         -2.52695       -6.68847       -3.61168
N         -1.83437       -7.80620       -3.27205
C         -0.77465       -7.73232       -4.02944
C         -0.67917       -6.57269       -4.94211
C         -4.82352       -4.14033       -3.71288
C         -5.29254       -2.88207       -4.20910
C         -5.45995       -1.80330       -3.43098
C         -5.89032       -0.51904       -3.89693
S         -5.28388        0.84057       -3.03043
C         -6.14039        1.99795       -3.97670
C         -6.96384        1.34145       -4.87979
C         -6.76097       -0.08598       -4.89049
S         -7.59671       -1.16759       -6.02124
C         -8.98501       -0.23131       -6.45764
O        -10.15078       -0.55662       -6.36709
C         -8.44428        1.00205       -7.14365
O         -8.34846        1.18335       -8.33986
S         -8.17656        2.15967       -5.88376
C         -5.88252        3.36885       -3.65772
C         -5.93601        4.37109       -4.54813
C         -5.50320        5.71507       -4.09991
N         -4.59244        5.92218       -3.17923
C         -4.50399        7.27315       -3.12254
C         -5.41505        7.87703       -4.06216
C         -5.28185        9.35822       -3.96258
O         -5.88097       10.22388       -4.56514
C         -4.24817        9.51637       -2.90815
C         -3.83145        8.21104       -2.46336
N         -2.88407        8.32796       -1.49724
C         -2.75287        9.61989       -1.37450
C         -3.59995       10.46541       -2.24461
C         -6.09492        6.94456       -4.72804
C         -7.07620        7.03558       -5.77265
C         -7.91198        8.07350       -5.92579
C         -8.90395        8.17595       -6.97748
C         -9.32979        9.34232       -7.48032
C        -10.58297        9.48233       -8.29824
O        -11.16721        8.62826       -8.92658
C        -11.01242       10.89175       -8.09476
C        -12.14957       11.52048       -8.56379
C        -12.42615       12.80987       -8.07877
C        -11.61200       13.38861       -7.07367
C        -10.41609       12.76346       -6.68195
C        -10.09362       11.54873       -7.26180
C         -8.88136       10.71016       -7.23033
C         -7.64637       11.19331       -7.52409
C         -6.62244       10.34021       -8.03478
N         -5.82692        9.65204       -8.53025
C         -7.40580       12.59565       -7.62716
N         -7.28567       13.74479       -7.74828
C        -11.99994       14.59874       -6.40491
N        -12.32103       15.54104       -5.80865
C        -13.52222       13.54083       -8.64691
N        -14.37565       14.14490       -9.14850
H        -10.58091       -6.13126        1.53540
H         -6.00840       -8.11580        1.96160
H         -7.32463       -4.13099       -2.64579
H          0.03780       -8.47487       -4.02403
H          0.09848       -6.32866       -5.63826
H         -5.42913       -2.83634       -5.28643
H         -5.20561       -1.87883       -2.37360
H         -5.53875        3.58848       -2.64524
H         -6.21494        4.24779       -5.58387
H         -2.05963       10.10474       -0.67012
H         -3.64883       11.53457       -2.29276
H         -7.10359        6.21977       -6.49065
H         -7.88999        8.89806       -5.21414
H         -9.39484        7.25045       -7.27863
H        -12.79264       11.02718       -9.28903
H         -9.76501       13.22594       -5.94122
