142

C         -7.41542      -15.97627       -2.34014
C         -6.06310      -15.82073       -2.09279
C         -5.06142      -16.82281       -2.47654
O         -5.32767      -17.88429       -3.01482
S         -3.46280      -16.29637       -2.05110
C         -4.04826      -14.73527       -1.49283
O         -3.30259      -13.80712       -1.25324
C         -5.51847      -14.68373       -1.46801
C         -6.36352      -13.65675       -0.98403
C         -7.72561      -13.81117       -1.29204
C         -8.22369      -14.93216       -1.93891
C         -9.65016      -14.78553       -2.10631
O        -10.39243      -15.58630       -2.63691
O         -9.96432      -13.58022       -1.58122
C         -8.87989      -12.93612       -1.07515
O         -8.88279      -11.83060       -0.57783
C         -5.94009      -12.42875       -0.29003
C         -4.94681      -12.19400        0.59328
C         -4.67109      -10.81514        1.10072
C         -4.11033      -10.46945        2.35154
C         -3.87273      -11.45427        3.47655
O         -4.59904      -12.43633        3.58729
C         -2.69605      -11.26909        4.36457
C         -1.48234      -10.84111        3.83981
S         -0.19626      -10.91899        4.93794
C         -1.21814      -11.58099        6.12616
C         -2.56928      -11.56089        5.81453
C         -3.68446      -11.79889        6.78133
O         -4.82067      -11.41673        6.51178
C         -3.49268      -12.47621        8.12968
C         -4.56308      -13.20181        8.68022
C         -4.41143      -13.93410        9.87142
C         -3.18067      -13.97393       10.52137
C         -2.13780      -13.19821       10.03952
C         -2.32375      -12.40655        8.89776
C         -3.79422       -9.11414        2.59674
C         -4.00736       -8.11461        1.63787
C         -4.58712       -8.41754        0.40883
C         -4.89744       -9.76477        0.17386
C         -4.72169       -7.37723       -0.65672
C         -4.58094       -7.78728       -1.94551
C         -4.11912       -6.86476       -2.96267
C         -3.57311       -7.13992       -4.18498
C         -3.62829       -8.38839       -5.09384
C         -4.61630       -9.49155       -4.58717
N         -4.80219      -10.69548       -5.40623
C         -3.96932       -7.98237       -6.56520
N         -4.03826       -9.11249       -7.50979
C         -2.57783       -6.04729       -4.30805
C         -1.37042       -6.05312       -4.90180
C         -0.28868       -5.07659       -4.43443
C         -0.78773       -3.86980       -3.65894
C         -2.01734       -3.83610       -3.12204
C         -2.82248       -5.01286       -3.29853
C         -3.75922       -5.51338       -2.49251
C         -4.27637       -5.01850       -1.24101
C         -4.75889       -5.92725       -0.37109
C          0.67359       -4.69190       -5.51279
C          0.42311       -3.99542       -6.63653
C          1.42674       -3.70519       -7.69927
C          1.13377       -3.03468       -8.90777
C         -0.20108       -2.44730       -9.23372
O         -1.20054       -3.09163       -8.92198
C         -0.35633       -1.21543      -10.05319
C         -1.51358       -1.11484      -10.82018
S         -1.63957        0.32284      -11.70808
C         -0.13242        0.85671      -11.12373
C          0.48147       -0.00730      -10.22573
C          1.77187        0.28971       -9.55614
O          2.18571       -0.40878       -8.63584
C          2.65295        1.43446       -9.94405
C          4.03690        1.21258      -10.05589
C          4.91884        2.27876      -10.26376
C          4.42930        3.57743      -10.37241
C          3.05864        3.80968      -10.26828
C          2.17734        2.74799      -10.03125
C          2.13315       -2.95298       -9.89189
C          3.42799       -3.44412       -9.66971
C          3.78863       -4.06691       -8.46932
C          2.76546       -4.15039       -7.50997
C          5.15494       -4.63246       -8.22477
C          6.33571       -4.01907       -8.70001
C          6.46277       -2.65317       -9.23274
O          5.71040       -1.73146       -8.98680
S          7.92951       -2.45222      -10.14594
C          8.61178       -3.88600       -9.42225
O          9.76751       -4.21790       -9.59984
C          7.60519       -4.63100       -8.63672
C          7.82485       -5.82042       -7.91909
C          6.68392       -6.34658       -7.31536
C          5.41101       -5.84322       -7.53425
C          4.48974       -6.82529       -6.94712
O          3.29139       -6.91861       -7.09336
O          5.24353       -7.68438       -6.22561
C          6.57430       -7.43454       -6.34547
O          7.43515       -7.97633       -5.71747
C          9.17333       -6.39797       -7.79614
C          9.47938       -7.70171       -7.77174
H         -7.82013      -16.85395       -2.83477
H         -6.58796      -11.58721       -0.53155
H         -4.26460      -12.97211        0.92305
H         -1.26586      -10.51784        2.83139
H         -0.70684      -11.88205        7.01744
H         -5.53687      -13.20394        8.18941
H         -5.25244      -14.48489       10.28913
H         -3.04283      -14.57520       11.41714
H         -1.18000      -13.18677       10.55668
H         -1.53362      -11.70496        8.68006
H         -3.36044       -8.80552        3.54563
H         -3.68449       -7.10126        1.86540
H         -5.30667      -10.01880       -0.80009
H         -4.44964       -8.82774       -2.15864
H         -2.62531       -8.83694       -5.10068
H         -5.60328       -9.04685       -4.41100
H         -4.23084       -9.89880       -3.65470
H         -5.04241      -10.37810       -6.35594
H         -5.62441      -11.19491       -5.07340
H         -3.20635       -7.29335       -6.94180
H         -4.93042       -7.45660       -6.60202
H         -3.34981       -9.81918       -7.23360
H         -3.76802       -8.80292       -8.44248
H         -1.05765       -6.87716       -5.53336
H          0.31114       -5.65277       -3.70949
H         -0.09554       -3.05373       -3.46978
H         -2.35738       -3.01380       -2.50601
H         -4.26874       -3.95727       -1.02409
H         -5.17197       -5.60972        0.58122
H          1.66582       -5.06177       -5.28325
H         -0.60045       -3.66664       -6.79966
H         -2.30797       -1.84876      -10.89697
H          0.19412        1.82081      -11.48049
H          4.44458        0.21124       -9.93131
H          5.99482        2.09801      -10.30958
H          5.11491        4.41104      -10.51036
H          2.67928        4.82511      -10.32462
H          1.12945        2.97784       -9.86775
H          1.92730       -2.46746      -10.84292
H          4.14973       -3.27740      -10.46392
H          3.02831       -4.60110       -6.56172
H         10.00704       -5.69735       -7.75094
H          8.74735       -8.50104       -7.81325
H         10.51674       -8.01374       -7.67225
