109

C          1.61711       -1.54469        0.63983
O          1.95353       -2.63436        0.21297
C          0.44583       -1.42792        1.49935
C          0.51827       -0.20748        2.12684
C         -0.37090        0.15511        3.12107
C         -1.38429       -0.75525        3.43848
C         -1.49011       -1.98331        2.75515
C         -0.55830       -2.33703        1.77522
C          1.65952        0.50462        1.56349
O          1.96542        1.61597        1.95947
N          2.23497       -0.31156        0.60066
C          3.39438        0.00750       -0.09306
C          4.24492        0.99840        0.27396
C          5.50209        0.87556       -0.42984
C          6.62017        1.72675       -0.23337
N          7.53421        2.41505       -0.06893
C          5.45190       -0.18351       -1.25012
C          4.08785       -0.73693       -1.18764
C          3.63124       -1.63879       -2.08598
C          4.42947       -2.53626       -2.95594
C          3.54914       -3.35688       -3.56799
C          2.19782       -2.96581       -3.23076
C          2.23236       -1.91283       -2.40202
C          1.03732       -3.60640       -3.71940
N          0.08513       -4.13952       -4.11614
C          5.85271       -2.73832       -3.04644
C          6.53649       -2.73995       -4.20298
C          7.99144       -2.83131       -4.27772
C          8.62066       -2.23415       -5.32705
C         10.07257       -2.21486       -5.38822
C         10.92772       -1.60875       -6.25908
C         10.60738       -0.79085       -7.51271
C         11.12363        0.67100       -7.39605
N         10.77866        1.52403       -8.53735
C         11.06111       -1.50580       -8.82820
N         10.76915       -0.75721      -10.06313
C         12.25895       -1.87067       -5.68762
C         13.47961       -1.41728       -6.00952
C         14.74101       -1.84167       -5.26922
C         14.48981       -2.76801       -4.08716
C         13.26495       -3.19274       -3.73353
C         12.14203       -2.73117       -4.50981
C         10.82895       -2.91112       -4.32118
C         10.13194       -3.61506       -3.27679
C          8.78862       -3.56919       -3.26983
C         15.64555       -2.52131       -6.25836
C         16.60606       -1.90525       -6.96925
C         17.42458       -2.58460       -7.94488
C         17.78438       -3.88268       -7.78457
C         18.67437       -4.30148       -8.83609
C         19.16908       -5.61979       -8.96937
N         19.57953       -6.70346       -9.03034
C         18.91205       -3.25623       -9.63771
C         18.18922       -2.09447       -9.12358
C         18.22021       -0.87487       -9.70466
C         19.08532       -0.41994      -10.82597
C         18.67603        0.83091      -11.13927
C         17.58051        1.21967      -10.27513
C         17.32490        0.23680       -9.40019
C         16.89081        2.45507      -10.35860
N         16.32211        3.45776      -10.42757
C         20.29565       -0.98210      -11.38759
C         20.50964       -1.14566      -12.70363
C         21.75208       -1.62794      -13.26793
C         22.37929       -2.80884      -13.09555
C         21.84122       -3.94724      -12.30349
O         20.65586       -4.15930      -12.11658
O         22.85807       -4.72053      -11.84504
C         22.48501       -5.84028      -11.03269
C         23.61879       -3.01954      -13.74552
N         24.63465       -3.16675      -14.29756
H         -0.27520        1.10158        3.64404
H         -2.09865       -0.51668        4.22497
H         -2.29536       -2.67129        3.00819
H         -0.61250       -3.29042        1.25867
H          4.11979        1.70805        1.07933
H          6.24911       -0.47699       -1.91319
H          3.79252       -4.20274       -4.19568
H          1.37794       -1.36813       -2.03757
H          6.36588       -2.82891       -2.09144
H          6.00674       -2.59508       -5.14304
H          8.06976       -1.69713       -6.09033
H          9.51257       -0.71794       -7.58139
H         12.20951        0.69292       -7.29848
H         10.70339        1.13491       -6.49840
H         11.14594        1.05184       -9.37976
H         11.27895        2.40842       -8.47866
H         10.55957       -2.47854       -8.90289
H         12.13878       -1.69202       -8.80996
H          9.77987       -0.49582      -10.08135
H         10.94512       -1.32317      -10.89092
H         13.63065       -0.72293       -6.82426
H         15.22502       -0.93946       -4.87177
H         15.35468       -3.09729       -3.51350
H         13.11462       -3.85694       -2.89140
H         10.67925       -4.15354       -2.51278
H          8.25153       -4.09536       -2.48530
H         15.43471       -3.57762       -6.42209
H         16.77913       -0.84477       -6.82161
H         17.48236       -4.54645       -6.98731
H         19.46805       -3.27887      -10.54883
H         19.13416        1.49663      -11.85643
H         16.53631        0.25501       -8.66864
H         21.06009       -1.25782      -10.66358
H         19.75071       -0.84168      -13.42420
H         22.21023       -0.89650      -13.94101
H         22.32446       -6.72283      -11.65897
H         21.59883       -5.63128      -10.43316
H         23.31340       -6.03996      -10.34780
