81

C         -0.59736       -2.27207        2.30727
C          0.00864       -2.28569        3.51936
C          1.16934       -3.07139        3.77729
N          2.11215       -3.71586        3.97940
C         -0.51983       -1.57762        4.63288
N         -0.94668       -0.98425        5.54560
C         -0.21843       -3.05881        1.08811
C         -1.34732       -3.11478        0.26404
C         -1.36146       -3.63931       -1.01873
C         -0.15365       -4.16442       -1.51878
C          0.97434       -4.18631       -0.68087
C          0.96549       -3.63549        0.63372
S          2.30979       -4.94332       -1.48429
C          1.43137       -5.13406       -2.91497
C          0.14212       -4.68725       -2.82280
Br         2.14537       -5.87897       -4.47910
C         -2.49207       -2.46591        0.91158
O         -3.66041       -2.70017        0.69175
C         -1.88607       -1.61724        1.97911
C         -2.33464       -0.38359        2.27590
C         -3.44736        0.22513        1.60666
S         -3.14953        1.18568        0.20325
C         -4.80603        1.53486       -0.01738
C         -5.60612        0.97896        0.95762
C         -7.09543        1.12334        1.02357
C         -4.80645        0.21942        1.88095
C         -5.39193       -0.54481        2.92478
C         -5.67768       -0.07264        4.14202
C         -6.36680       -0.82377        5.15539
C         -6.77249       -2.09821        5.08063
C         -7.41708       -2.72959        6.16694
O         -7.80462       -4.06056        6.10302
C         -7.77254       -2.29866        7.41724
C         -7.74381       -1.15484        8.27889
O         -7.32209       -0.03209        8.06702
N         -8.31563       -1.59342        9.44837
C         -8.70259       -2.91574        9.42410
O         -9.22359       -3.55487       10.31888
C         -8.35152       -3.36011        8.11023
C         -8.36396       -4.46653        7.30564
C         -8.80882       -5.78084        7.56741
C         -8.74020       -6.73718        6.62960
C         -9.15163       -8.06836        6.90297
S         -9.04490       -9.29561        5.66581
C         -9.65705      -10.56920        6.67765
C         -9.93250      -10.02747        7.88723
C         -9.65358       -8.68196        8.00108
C        -10.02033       -8.40552        9.34540
C        -10.49118       -9.60476        9.90955
N        -10.43442      -10.65095        8.99710
C         -9.82643      -11.91969        6.23639
S        -11.05019      -13.01150        6.81917
C        -10.55360      -14.31613        5.78436
C         -9.50626      -13.88062        5.05481
C         -9.11170      -12.58434        5.29985
O         -8.04663      -12.12215        4.58272
C         -7.78242      -13.24355        3.82115
N         -6.68898      -13.11744        2.90171
O         -6.46003      -14.10476        2.18972
O         -6.06139      -12.05174        2.88620
C         -8.62459      -14.33639        4.06186
H         -2.26285       -3.59894       -1.62324
H          1.88165       -3.65455        1.21543
H         -0.57220       -4.71968       -3.63742
H         -1.77098        0.27138        2.93458
H         -5.12609        2.13481       -0.85827
H         -7.47354        1.75003        0.21006
H         -7.39491        1.58856        1.96915
H         -7.58450        0.14597        0.94969
H         -5.67716       -1.55334        2.63941
H         -5.41984        0.94852        4.42368
H         -6.54515       -0.22846        6.03914
H         -6.60992       -2.70980        4.19780
H         -8.42495       -0.98584       10.24042
H         -9.18447       -5.97347        8.56274
H         -8.35393       -6.51000        5.63714
H         -9.96801       -7.46374        9.87351
H        -10.86626       -9.78520       10.90908
H        -10.69587      -11.62501        9.09003
H        -11.06197      -15.27010        5.79709
H         -8.57899      -15.29985        3.57354
