109

C        -12.03054        3.91940        1.78878
C        -13.03091        3.40070        2.53942
C        -13.88573        4.20439        3.34800
N        -14.57562        4.86101        4.01781
C        -13.35653        2.00946        2.52777
N        -13.59716        0.88209        2.52891
C        -11.73520        5.37332        1.62471
C        -11.04298        5.53529        0.42805
C        -10.58387        6.75400       -0.05490
C        -10.79949        7.89464        0.74400
C        -11.48427        7.74617        1.96040
C        -11.96706        6.49148        2.41840
S        -11.61936        9.26367        2.77831
C        -10.76811       10.06914        1.56306
C        -10.39122        9.25376        0.53108
Br       -10.36872       11.89791        1.62477
C        -10.79823        4.24222       -0.21428
O        -10.45544        4.15435       -1.37222
C        -11.15152        3.19175        0.81067
C        -10.62312        1.96149        0.98771
C         -9.60599        1.26642        0.23002
S         -9.35808        1.53835       -1.44966
C         -7.97844        0.57282       -1.52408
C         -7.77325       -0.14898       -0.37057
C         -6.70353       -1.19442       -0.28845
C         -8.74072        0.23471        0.64874
C         -8.82873       -0.37319        1.95764
C         -7.78876       -0.82075        2.67449
C         -7.88596       -1.43421        3.97082
C         -7.16171       -0.95482        4.99286
C         -7.11497       -1.65193        6.22497
N         -8.02038       -2.50999        6.67860
C         -7.50612       -3.16717        7.75531
C         -6.22776       -2.80268        8.10598
S         -5.65441       -1.53620        7.19297
C         -5.64407       -3.78365        9.01130
C         -6.37648       -5.07424        8.44472
C         -7.89398       -4.56086        8.31289
C         -8.64118       -4.41266        9.66666
C         -8.84893       -5.70171       10.44981
C         -8.73077       -5.32192        7.25077
C        -10.17020       -4.80975        7.06917
N         -5.90402       -6.23275        9.25081
C         -4.55400       -5.88553        9.81404
S         -3.98463       -4.33788        9.03941
C         -6.12322       -7.56414        8.83231
C         -5.74396       -8.72038        9.41276
C         -5.10125       -8.84148       10.69659
C         -4.66930      -10.07246       10.98491
C         -4.93638      -11.04917        9.94826
S         -5.93183      -10.30757        8.67974
C         -4.39723      -12.28405        9.91317
C         -3.42651      -12.80464       10.86927
C         -2.69451      -13.81680       10.38263
C         -3.06625      -14.17134        9.03014
S         -4.57949      -13.42109        8.58352
C         -2.27961      -14.87901        8.20885
C         -2.53339      -15.16001        6.79074
C         -2.05905      -14.35639        5.70880
O         -1.36015      -13.23312        6.12026
C         -1.47729      -12.06443        5.31459
C         -2.21384      -14.74440        4.33432
O         -1.74264      -13.88495        3.36842
C         -1.32326      -14.42513        2.11920
C         -2.87332      -15.93290        3.96752
C         -3.40292      -16.72897        5.00598
C         -3.24618      -16.34177        6.44603
N         -3.82724      -17.22621        7.27820
S         -4.52027      -18.39804        6.33116
N         -4.07092      -17.87765        4.82266
H        -10.04063        6.80830       -0.99468
H        -12.46326        6.44266        3.38163
H         -9.83455        9.58914       -0.33608
H        -10.90866        1.43166        1.88973
H         -7.41075        0.51771       -2.44264
H         -6.11636       -1.23044       -1.21259
H         -7.14503       -2.18343       -0.13265
H         -5.98508       -0.98425        0.50573
H         -9.81888       -0.46168        2.40187
H         -6.77094       -0.71250        2.32048
H         -8.47313       -2.34849        4.06058
H         -6.54292       -0.07275        4.86390
H         -5.93983       -3.55934       10.04332
H         -6.02503       -5.25840        7.41045
H         -8.13043       -3.69665       10.32093
H         -9.62699       -3.96229        9.49462
H         -9.41776       -5.48966       11.36157
H         -7.90376       -6.14180       10.77163
H         -9.40712       -6.44473        9.87400
H         -8.23199       -5.24570        6.27537
H         -8.77769       -6.38719        7.49439
H        -10.25842       -3.72206        7.16327
H        -10.84244       -5.26141        7.80606
H        -10.54741       -5.07894        6.07648
H         -3.79723       -6.65667        9.64803
H         -4.66422       -5.70949       10.89008
H         -6.63868       -7.60497        7.87216
H         -4.97580       -8.00751       11.36654
H         -4.14605      -10.30368       11.90005
H         -3.23426      -12.36422       11.83744
H         -1.86200      -14.26792       10.90679
H         -1.31603      -15.23748        8.56104
H         -2.49482      -11.91849        4.93623
H         -0.74284      -12.08282        4.50370
H         -1.22991      -11.19915        5.93813
H         -0.33282      -14.87676        2.22471
H         -1.25139      -13.59594        1.40868
H         -2.02292      -15.13729        1.67805
H         -3.02909      -16.25897        2.95128
