126

C         -1.63623        0.68385        7.24026
C         -1.00818        0.47233        8.46557
F         -0.79010        1.51550        9.27768
C         -0.61525       -0.80191        8.84864
F         -0.02708       -1.00039       10.03591
C         -0.82786       -1.88636        8.00694
C         -1.44778       -1.69510        6.76480
C         -1.87637       -0.39248        6.37249
C         -2.53897       -0.20192        5.13588
C         -2.76045       -1.28216        4.28911
C         -2.30656       -2.53805        4.70779
C         -1.66104       -2.77530        5.91164
C         -2.67097       -3.57688        3.74652
O         -2.31146       -4.73215        3.82757
C         -3.55820       -2.90820        2.73259
C         -3.44607       -1.44351        2.96854
C         -3.78137       -0.44971        2.10848
C         -4.33810       -0.69958        0.82033
N         -4.80528       -0.90502       -0.22169
C         -3.56898        0.93024        2.39898
N         -3.40517        2.05073        2.63728
C         -4.39965       -3.59879        1.94489
C         -4.51300       -5.03461        1.85586
C         -3.51699       -5.86331        1.47898
C         -4.00865       -7.24058        1.51999
C         -5.41439       -7.14212        1.94414
C         -5.69389       -5.84079        2.12421
C         -6.35317       -8.17609        2.16892
N         -7.13056       -9.01726        2.36173
C         -3.28177       -8.33640        1.21873
C         -3.78633       -9.70462        1.22450
C         -2.78723      -10.54114        0.88169
C         -1.60831       -9.73883        0.59685
C         -1.87459       -8.43897        0.81034
C         -0.91197       -7.41576        0.65606
N         -0.10829       -6.58922        0.51788
C         -2.91700      -11.96819        0.75090
C         -3.77950      -12.70604        1.46608
C         -3.85797      -14.12849        1.36679
N         -3.63941      -14.97809        2.45155
C         -3.31017      -14.57389        3.80392
C         -4.54807      -14.39034        4.66674
C         -3.75226      -16.33090        2.07826
O         -3.60959      -17.34153        2.73489
C         -4.08383      -16.23825        0.64820
C         -4.12217      -14.85386        0.27816
C         -4.42612      -14.77505       -1.16181
O         -4.52079      -13.77177       -1.83820
N         -4.55642      -16.13389       -1.52650
C         -4.85503      -16.54378       -2.88757
C         -6.22571      -16.08478       -3.35857
C         -4.33248      -16.97234       -0.43256
C         -4.33730      -18.39937       -0.47055
C         -3.51167      -19.10653       -1.25204
C         -3.53734      -20.53740       -1.32608
C         -3.21250      -21.20635       -2.44972
C         -3.35977      -22.63998       -2.19776
C         -3.74270      -22.75178       -0.78238
C         -3.84132      -21.50659       -0.28705
C         -4.00483      -23.90854       -0.01552
N         -4.23959      -24.84477        0.62894
C         -3.19893      -23.60761       -3.12364
C         -3.35683      -25.04329       -2.89606
C         -3.16453      -25.68586       -4.06481
C         -2.87816      -24.69541       -5.09007
C         -2.87136      -23.46723       -4.54917
C         -2.59847      -22.29845       -5.29689
N         -2.37689      -21.34175       -5.91595
C         -3.23765      -27.11634       -4.19724
C         -2.24802      -27.92736       -4.59860
C         -0.93209      -27.50913       -5.02914
C          0.19309      -28.22947       -4.95018
C          1.36760      -27.80997       -5.78314
O          1.60243      -26.71755       -6.25291
C          2.14214      -29.04641       -5.99623
C          3.22343      -29.19899       -6.84723
C          3.75311      -30.48451       -7.00868
C          3.15104      -31.59108       -6.33331
C          3.66862      -32.87829       -6.52939
C          4.77129      -33.06878       -7.35500
C          5.36651      -31.99217       -7.99707
C          4.86333      -30.70505       -7.83607
F          6.43568      -32.18362       -8.78140
F          5.25728      -34.30624       -7.52037
C          2.05478      -31.39106       -5.47380
C          1.57335      -30.10722       -5.27279
C          0.50296      -29.55159       -4.40299
C          0.14159      -30.04059       -3.19077
C         -0.61879      -29.28100       -2.25252
N         -1.20994      -28.67967       -1.45463
C          0.59860      -31.30138       -2.70996
N          0.96624      -32.33830       -2.34096
H         -1.93125        1.69701        6.97931
H         -0.50946       -2.87238        8.33561
H         -2.88106        0.79881        4.89094
H         -1.35740       -3.78650        6.17233
H         -5.13604       -3.09705        1.32414
H         -2.52131       -5.53579        1.23180
H         -6.64024       -5.43014        2.44693
H         -4.79132      -10.02236        1.44145
H         -0.66298      -10.15641        0.28065
H         -2.23444      -12.44629        0.04987
H         -4.44238      -12.24908        2.19645
H         -2.71638      -13.65384        3.78149
H         -2.68151      -15.35275        4.25055
H         -5.20519      -13.61485        4.26063
H         -4.26155      -14.09743        5.68175
H         -5.12541      -15.31857        4.72950
H         -4.81033      -17.63082       -2.98607
H         -4.08184      -16.12195       -3.53923
H         -7.01339      -16.46311       -2.69948
H         -6.41717      -16.45445       -4.37120
H         -6.29785      -14.99371       -3.38138
H         -5.03458      -18.89096        0.20435
H         -2.81071      -18.59544       -1.91078
H         -2.93100      -20.72399       -3.36962
H         -4.10470      -21.23710        0.72500
H         -3.56193      -25.53943       -1.96093
H         -2.68958      -24.93784       -6.12402
H         -4.17424      -27.56453       -3.86717
H         -2.45236      -28.99665       -4.60049
H         -0.88458      -26.55493       -5.55386
H          3.62546      -28.33814       -7.37562
H          3.23184      -33.74503       -6.03964
H          5.35190      -29.88665       -8.35829
H          1.60019      -32.24920       -4.98668
