92

C         -1.08043        0.89586       -0.53312
C         -0.13504       -0.10794       -0.35941
C          0.93764       -0.50459       -1.26140
O          1.20233       -0.00306       -2.33463
O          1.59316       -1.54122       -0.65721
C          1.00965       -1.88005        0.61918
C         -0.08328       -0.90044        0.76064
C         -0.97966       -0.69467        1.78417
C         -1.91286        0.34863        1.65126
C         -2.01067        1.16733        0.48981
C         -3.03555        2.26001        0.37003
C         -2.84942        3.46839       -0.37721
C         -3.84682        4.50796       -0.45348
N         -3.63860        5.62428       -1.18807
C         -2.47657        5.75321       -1.87383
C         -1.51789        4.77717       -1.81380
N         -1.69202        3.66169       -1.05282
C         -0.29864        4.84458       -2.56507
N          0.66983        4.92450       -3.19443
C         -2.32274        6.96038       -2.62940
N         -2.18078        7.94169       -3.23556
C         -5.06160        4.42275        0.22842
C         -5.32569        3.24452        0.96053
C         -4.31141        2.13887        1.02080
N         -4.77171        1.09010        1.72809
S         -6.28037        1.46360        2.28426
N         -6.44286        2.98273        1.66112
C         -6.08945        5.45010        0.18763
N         -6.15217        6.55606        1.03887
C         -5.20729        6.91589        2.07241
C         -4.10202        7.82209        1.55133
C         -7.22783        7.40442        0.70509
O         -7.56509        8.45695        1.20573
C         -7.84119        6.71591       -0.43845
C         -7.09074        5.51872       -0.69606
C         -7.68233        4.85616       -1.87345
O         -7.29899        3.82603       -2.38836
N         -8.72770        5.74069       -2.23056
C         -9.54985        5.54869       -3.41296
C        -11.03172        5.38853       -3.10556
C         -8.79459        6.83163       -1.36158
C         -9.70572        7.93296       -1.53053
C        -10.57488        8.32916       -0.58649
C        -11.45246        9.49988       -0.75117
C        -12.74229        9.47106       -1.29038
C        -13.52821       10.67145       -1.50148
N        -14.70115       10.55396       -2.16770
C        -15.20510        9.31005       -2.41412
C        -14.49036        8.17735       -2.11948
N        -13.23619        8.25612       -1.60677
C        -14.97917        6.85075       -2.33378
N        -15.37085        5.76538       -2.50477
C        -16.51635        9.26028       -2.99949
N        -17.56140        9.18685       -3.49938
C        -13.12172       11.95717       -1.03440
C        -11.81864       11.99129       -0.42516
C        -10.97428       10.75174       -0.30460
N         -9.77447       10.98308        0.25190
S         -9.70183       12.58518        0.62207
N        -11.19234       13.06517        0.09410
C        -13.93142       13.21862       -1.15545
C        -15.32593       13.32436       -1.00242
C        -16.34737       12.35231       -0.56623
O        -16.17880       11.26065       -0.05645
O        -17.57512       12.93104       -0.75123
C        -17.46933       14.31083       -1.12079
C        -16.01247       14.52188       -1.20935
C        -15.36163       15.71139       -1.47620
C        -13.98252       15.67469       -1.58595
C        -13.29311       14.45183       -1.46494
H         -1.06100        1.44485       -1.46930
H          1.77109       -1.77006        1.39603
H          0.64332       -2.90946        0.57465
H         -0.97035       -1.31064        2.67887
H         -2.57770        0.50479        2.49939
H         -4.78911        6.01234        2.52659
H         -5.75404        7.45281        2.85704
H         -3.46441        7.29877        0.83557
H         -3.46739        8.16209        2.37506
H         -4.51205        8.70326        1.04641
H         -9.20032        4.65810       -3.94708
H         -9.38960        6.40392       -4.07919
H        -11.19913        4.60967       -2.35597
H        -11.58275        5.12701       -4.01391
H        -11.46766        6.31557       -2.72569
H         -9.63759        8.44439       -2.48669
H        -10.64146        7.82157        0.37212
H        -17.93805       14.92830       -0.34999
H        -17.95615       14.46778       -2.08880
H        -15.90735       16.64292       -1.59516
H        -13.42935       16.59157       -1.78195
H        -12.21458       14.50058       -1.61290
