113

C         -8.79099       -3.15695        7.04956
C         -9.83191       -2.82794        7.92230
C        -10.68422       -1.75289        7.64804
C        -10.52471       -0.99712        6.48534
C         -9.52029       -1.34984        5.59074
C         -8.63589       -2.42441        5.87865
C         -7.58661       -2.48236        4.80693
C         -6.80906       -3.54194        4.48366
C         -6.91976       -4.79869        5.14531
N         -7.02387       -5.82745        5.67037
C         -5.87637       -3.51002        3.41090
N         -5.07369       -3.49266        2.57089
C         -7.71894       -1.19791        4.05548
C         -9.13387       -0.78171        4.26150
C        -10.04728       -0.39483        3.34049
C         -9.74726       -0.32188        1.95420
N         -9.55631       -0.25191        0.81520
C        -11.42625       -0.19632        3.65024
N        -12.54347       -0.00941        3.89975
C         -6.66508       -0.46923        3.62091
C         -6.64328        0.90356        3.09039
C         -6.77864        1.15896        1.72469
C         -6.66749        0.25788        0.57490
O         -6.42177       -0.92959        0.70219
N         -6.79562        1.02099       -0.57205
C         -7.11795        2.31338       -0.25067
O         -7.54344        3.23644       -0.92191
C         -6.90417        2.43813        1.19907
C         -6.73934        3.56462        1.98413
C         -6.45132        3.33248        3.33001
C         -6.41592        2.04199        3.88018
C         -6.02413        2.07155        5.29763
O         -5.82969        1.08555        5.98399
S         -5.81144        3.71250        5.87654
C         -6.12084        4.38063        4.29470
O         -6.05796        5.56361        4.01407
C         -6.57652        0.45931       -1.81112
C         -6.53650        0.96002       -3.05462
C         -6.71278        2.29522       -3.64298
C         -5.62910        3.15710       -3.82883
C         -4.23443        3.11306       -3.35657
O         -3.76195        2.18512       -2.72436
N         -3.62981        4.29959       -3.74171
C         -4.49624        5.07166       -4.47226
O         -4.37749        6.16956       -4.98527
C         -5.75256        4.34763       -4.54025
C         -6.91613        4.75648       -5.15460
C         -8.00131        3.92000       -4.96904
C         -7.92684        2.74431       -4.20332
C         -9.26530        2.16134       -4.04255
O         -9.55840        1.29345       -3.23863
S        -10.44814        2.93766       -5.08301
C         -9.32181        4.18735       -5.53414
O         -9.59080        5.14286       -6.23524
C         -2.32670        4.62277       -3.40909
C         -1.67153        5.73433       -3.78961
C         -0.26748        6.07110       -3.48610
C          0.11769        7.40901       -3.28269
C         -0.64682        8.66705       -3.35208
O         -1.84381        8.69765       -3.57064
N          0.23143        9.70961       -3.13350
C          1.49535        9.23176       -2.88142
O          2.52527        9.82149       -2.61203
C          1.42744        7.77516       -2.98524
C          2.44406        6.85384       -2.85047
C          2.09205        5.52713       -3.09243
C          0.78940        5.14147       -3.44347
C          0.76679        3.71912       -3.83536
O         -0.13181        3.16452       -4.43783
S          2.26600        2.90789       -3.43293
C          3.03745        4.41355       -3.03074
O          4.20354        4.53815       -2.71966
C         -0.07028       11.06046       -3.16376
C         -1.27774       11.57643       -3.44047
C         -1.55985       12.99437       -3.48538
C         -2.13129       13.64721       -4.51752
C         -2.79635       14.97489       -4.41129
C         -2.34084       16.06475       -3.74873
C         -1.11061       16.04394       -3.02218
N         -0.11965       16.00556       -2.42683
C         -3.00649       17.31529       -3.77683
N         -3.55387       18.35266       -3.79224
C         -3.99936       14.87787       -5.30741
C         -3.88730       13.70091       -6.10432
C         -4.91672       13.32336       -6.95929
C         -6.04267       14.14206       -7.06141
C         -6.14683       15.30955       -6.29811
C         -5.13495       15.67409       -5.40493
C         -2.57502       13.05364       -5.80275
C         -1.83218       12.31118       -6.65840
C         -2.32470       11.85362       -7.91320
N         -2.71899       11.46748       -8.93391
C         -0.44800       12.05502       -6.42648
N          0.68727       11.86616       -6.27516
H         -8.12565       -3.96596        7.33080
H         -9.96963       -3.40287        8.83651
H        -11.47544       -1.50173        8.35235
H        -11.18839       -0.15418        6.32044
H         -5.65599       -0.87488        3.71208
H         -6.75723        4.56551        1.56185
H         -6.33361       -0.60433       -1.73368
H         -6.25700        0.22508       -3.81524
H         -6.98055        5.69014       -5.70552
H         -1.83739        3.85978       -2.80718
H         -2.19552        6.49012       -4.37086
H          3.46044        7.14677       -2.60716
H          0.77858       11.72286       -2.98416
H         -2.13705       10.94138       -3.64185
H         -1.41597       13.47656       -2.51984
H         -4.89120       12.40839       -7.54252
H         -6.85255       13.86512       -7.73423
H         -7.03560       15.93179       -6.38856
H         -5.28688       16.56355       -4.80359
