121

C         -3.41058        6.81799       12.32104
C         -3.94296        6.77934       13.57036
C         -3.19751        6.36019       14.70608
N         -2.59795        6.01647       15.64693
C         -5.27270        7.21301       13.85777
N         -6.35363        7.55686       14.08217
C         -1.98935        6.52076       11.95407
C         -1.74362        7.06297       10.69260
C         -0.52274        6.99121       10.03479
C          0.52887        6.30575       10.67351
C          0.29427        5.73401       11.93372
C         -0.96181        5.82686       12.59266
S          1.71142        4.93098       12.51881
C          2.59094        5.33073       11.13393
C          1.87182        6.05934       10.22606
Br         4.37342        4.82301       10.86074
C         -2.96048        7.65735       10.12270
O         -3.01330        8.26036        9.07185
C         -4.06172        7.33781       11.09015
C         -5.36456        7.38215       10.77000
C         -5.88274        7.82371        9.52190
C         -6.28816        9.10500        9.13899
C         -6.94988        9.07540        7.89137
C         -7.04251        7.79070        7.40586
S         -6.25403        6.63947        8.30263
C         -7.87892        7.78961        6.27238
C         -8.29296        9.07774        6.02104
C         -7.66872        9.98006        6.99116
C         -7.70163       11.32614        7.01439
C         -7.00535       12.06996        8.00646
N         -6.43959       12.67804        8.81628
C         -8.39378       12.07427        6.02129
N         -8.95494       12.67883        5.20554
C         -9.21765        9.12331        4.95611
C         -9.47808        7.84254        4.46087
S         -8.54648        6.63215        5.29049
C        -10.41378        7.46418        3.42614
C        -10.35105        6.35946        2.57199
C        -11.47208        6.31084        1.71657
C        -12.32464        7.36435        1.95379
S        -11.84759        8.40693        3.15062
C        -13.43120        7.25839        1.09176
C        -13.28553        6.13743        0.30760
C        -12.02624        5.47438        0.64875
C        -11.50076        4.36278        0.09830
C        -10.24737        3.84236        0.51964
N         -9.21937        3.42469        0.85900
C        -12.16194        3.66498       -0.94950
N        -12.70562        3.10433       -1.80878
C        -14.38667        5.96701       -0.55872
C        -15.33475        6.97244       -0.36489
S        -14.81552        8.12701        0.82874
C        -16.61132        7.09720       -1.02296
C        -16.94361        6.71667       -2.30128
C        -18.34346        6.90975       -2.63570
C        -19.09313        6.55394       -3.78817
C        -18.47819        5.68803       -4.83409
C        -18.54433        5.76669       -6.21886
C        -17.85242        4.71409       -6.88681
C        -17.19238        3.88502       -6.00989
S        -17.58984        4.26990       -4.39314
C        -16.25534        2.76191       -6.31133
Cl       -17.84683        4.56900       -8.59258
C        -20.42221        7.01210       -3.94034
C        -21.03434        7.80771       -2.95921
C        -20.32407        8.07902       -1.75828
C        -19.00018        7.60128       -1.60579
S        -17.97718        7.68271       -0.21416
C        -20.99176        8.88235       -0.68130
C        -22.30448        8.85894       -0.22265
C        -22.57773        9.81011        0.81189
C        -21.46460       10.54039        1.15785
S        -20.14109       10.13104        0.16047
C        -21.29323       11.60411        2.19521
Cl       -24.14159        9.98611        1.48812
C        -22.32796        8.25409       -3.41875
C        -22.72047        7.75584       -4.64376
S        -21.52251        6.71967       -5.25231
C        -23.88956        8.02707       -5.41395
C        -25.09743        8.22335       -4.86783
C        -26.14290        8.96042       -5.64754
O        -26.21936        9.11063       -6.84670
C        -27.02694        9.56249       -4.62566
C        -26.61603        9.18245       -3.33740
C        -27.22603        9.75287       -2.23097
C        -28.34768       10.58513       -2.42129
C        -28.78438       10.91351       -3.72936
C        -28.09300       10.41564       -4.84717
C        -29.94562       11.72071       -3.97987
N        -30.89076       12.32982       -4.26805
C        -29.04181       11.13733       -1.22884
O        -29.54493       12.24473       -1.22235
O        -29.06830       10.31379       -0.16157
C        -25.58359        8.12890       -3.48966
C        -25.41528        7.08080       -2.64587
C        -24.79560        5.86772       -3.06979
N        -24.35511        4.85545       -3.42414
C        -25.96898        7.06786       -1.33553
N        -26.43116        7.13308       -0.27340
H         -0.39806        7.42793        9.04924
H         -1.07794        5.34032       13.55482
H          2.26540        6.40282        9.27640
H         -6.12708        7.01772       11.44901
H         -6.16475        9.96966        9.78065
H         -9.70541       10.01135        4.57090
H         -9.53268        5.64981        2.59278
H        -14.53412        5.15664       -1.26238
H        -16.21322        6.29379       -2.98044
H        -19.08190        6.53981       -6.75272
H        -16.63549        2.14163       -7.12929
H        -16.09428        2.10906       -5.44757
H        -15.28086        3.16224       -6.61486
H        -23.06060        8.19247       -0.61163
H        -22.24018       12.10365        2.42199
H        -20.59596       12.37735        1.85373
H        -20.89977       11.18313        3.12760
H        -22.93576        8.95677       -2.86548
H        -23.75309        8.19396       -6.48380
H        -26.84402        9.57904       -1.22909
H        -28.38915       10.67022       -5.86375
H        -28.72419        9.40448       -0.24613
