103

C         -8.61058       15.70703        1.42961
C         -7.39725       16.10980        1.97385
C         -6.41600       15.11322        1.78069
C         -6.92278       14.01598        1.11593
S         -8.53093       14.13480        0.70514
C         -5.89396       13.06034        0.95636
C         -4.73528       13.55434        1.51426
C         -4.99979       14.88441        2.07605
C         -4.14876       15.70504        2.72106
C         -2.79293       15.34386        2.94646
N         -1.68750       15.04464        3.13266
C         -4.56004       16.97853        3.22005
N         -4.89710       18.01015        3.62913
C         -3.66229       12.64337        1.37265
C         -4.06253       11.47356        0.71590
S         -5.75746       11.54366        0.28895
C         -3.29840       10.30430        0.38641
C         -3.23109        9.31147        1.29692
C         -2.50914        8.09038        1.03858
C         -1.80440        7.85087       -0.23008
C         -1.74628        8.72471       -1.23480
S         -2.51384       10.29059       -1.18566
C         -1.23738        6.56215       -0.13762
C         -1.54883        6.00799        1.08122
C         -1.00899        4.72323        1.26146
C         -0.29642        4.34794        0.12987
S         -0.30161        5.57107       -1.10395
C         -2.34473        6.97308        1.80848
C         -2.86774        6.77599        3.14060
C         -3.71677        5.78640        3.45910
C         -4.20972        5.63102        4.78465
C         -5.31957        6.15385        5.41601
C         -5.49011        5.66988        6.77215
C         -6.56111        6.04732        7.59775
C         -7.45108        6.93792        6.95767
C         -7.27832        7.41225        5.62102
C         -6.20128        7.04209        4.78885
C         -4.48129        4.80959        7.16993
S         -3.40595        4.53666        5.83166
C         -4.27393        4.12930        8.41358
C         -3.04408        3.80550        8.84692
C         -2.69798        3.06982       10.05367
C         -1.55109        2.36188       10.03341
C         -1.08421        1.62434       11.17170
C         -1.83066        1.57800       12.43079
C         -2.97077        2.22925       12.65205
S         -3.75102        3.21930       11.45398
C         -1.09581        0.74716       13.29787
C          0.03192        0.29099       12.65643
C          0.82342       -0.54487       13.45840
C          0.24472       -0.67525       14.71448
S         -1.24262        0.20684       14.86977
C          0.03583        0.86007       11.33032
C          1.04955        0.62285       10.33178
C          1.77634        1.60087        9.76385
C          2.68430        1.34252        8.66669
C          3.47272        2.22380        8.03015
C          4.27121        2.01074        6.80543
C          4.94505        0.88095        6.47391
C          5.77858        0.79636        5.32471
N          6.45245        0.72426        4.37916
C          4.93180       -0.28278        7.29870
N          4.90742       -1.22329        7.97571
C          4.37829        3.33849        6.13623
C          3.98002        4.31874        7.05744
C          3.52198        3.69749        8.31051
O          3.26783        4.28399        9.34070
C          3.98188        5.67568        6.77907
C          4.39753        6.08898        5.50929
C          4.78693        5.12003        4.54110
C          4.75849        3.74338        4.86226
C          5.20512        5.56303        3.27539
C          5.24794        6.92580        2.96972
C          4.86207        7.86735        3.91891
C          4.43437        7.45156        5.17951
H         -9.54481       16.25370        1.41758
H         -7.27537       17.06765        2.46552
H         -2.64414       12.78947        1.71358
H         -3.74146        9.39931        2.25108
H         -1.20085        8.48143       -2.14195
H         -1.11516        4.09973        2.13986
H          0.23382        3.42110       -0.04492
H         -2.53319        7.48996        3.89079
H         -4.05346        5.06819        2.71684
H         -6.72310        5.71109        8.61416
H         -8.32293        7.28653        7.51352
H         -8.02565        8.09849        5.22123
H         -6.09607        7.41224        3.77795
H         -5.15159        3.87163        9.00020
H         -2.17868        4.08121        8.24514
H         -0.94606        2.31544        9.13222
H         -3.46174        2.16481       13.61689
H          1.75413       -1.01650       13.17172
H          0.61226       -1.23791       15.56122
H          1.17837       -0.41631       10.03620
H          1.65255        2.62852       10.10316
H          2.62757        0.31922        8.30133
H          3.66075        6.38641        7.53567
H          5.03422        3.02628        4.09447
H          5.51608        4.85038        2.51356
H          5.58706        7.25305        1.98958
H          4.89722        8.92777        3.68052
H          4.13667        8.20505        5.90627
