85

C          2.58388        4.90596        1.35872
C          1.88773        4.62513        0.23578
C          2.44823        4.76975       -1.06142
N          2.90406        4.90559       -2.11761
C          0.53959        4.14543        0.28846
N         -0.55184        3.76537        0.33505
C          4.01635        5.24908        1.46835
C          4.47544        4.77862        2.70906
C          5.78018        4.95047        3.13402
C          6.63456        5.72224        2.33081
C          6.14631        6.30534        1.12299
C          4.83835        6.03828        0.68235
C          6.97271        7.17869        0.40157
C          8.26869        7.45626        0.83647
C          8.76356        6.84704        1.98591
C          7.95334        5.98547        2.72840
C          3.32439        4.32403        3.53360
O          3.35529        3.83237        4.63910
C          2.12114        4.74811        2.74011
C          1.07088        5.29332        3.38664
C          0.17539        6.22601        2.76860
C         -1.16570        6.46606        2.98827
F         -1.86424        5.86383        3.91444
C         -1.73975        7.33995        2.03854
F         -3.02139        7.59165        2.00464
C         -0.83401        7.82695        1.11917
S          0.74595        7.43783        1.65711
C         -1.06290        8.56449       -0.10956
S         -0.08864        8.24534       -1.49924
C         -1.07827        9.17427       -2.57357
C         -2.22588        9.55338       -1.89528
C         -2.04632        9.47523       -0.44692
C         -2.90895       10.11952        0.46329
C         -2.55553       10.39639        1.86892
O         -1.42070       10.62793        2.23756
O         -3.62123       10.39579        2.69436
C         -4.03309       10.71841       -0.15363
C         -4.28810       10.65945       -1.55558
C         -3.38328       10.10359       -2.47794
O         -3.66754       10.04050       -3.80938
C         -0.62222        9.46802       -3.92605
C         -0.84131       10.59323       -4.69572
F         -1.50232       11.64424       -4.28586
C         -0.25577       10.53003       -5.97898
F         -0.34901       11.49939       -6.85179
C          0.43733        9.36353       -6.22476
S          0.48171        8.44269       -4.76015
C          1.18918        8.98307       -7.38675
C          1.30849        7.72751       -7.85681
C          2.29822        7.17405       -8.81443
C          2.77443        7.75684       -9.94043
C          3.64477        7.08397      -10.84559
N          4.35681        6.53493      -11.58024
C          2.38512        9.06952      -10.33579
N          2.07432       10.14147      -10.64825
C          2.53964        5.76390       -8.37724
C          1.53182        5.41339       -7.46981
C          0.60852        6.53233       -7.27932
O         -0.51667        6.45039       -6.83209
C          1.47298        4.20322       -6.80138
C          2.48120        3.27188       -7.05045
C          3.51259        3.57808       -7.98403
C          3.53691        4.83350       -8.63652
C          4.50454        2.61589       -8.22712
C          4.49357        1.38970       -7.55746
C          3.49511        1.10678       -6.62990
C          2.49297        2.04233       -6.37806
H          6.09543        4.56597        4.09962
H          4.46782        6.51025       -0.22386
H          6.60706        7.67145       -0.49780
H          8.89055        8.15145        0.27774
H          9.77800        7.05675        2.31616
H          8.35775        5.53773        3.63403
H          0.94493        5.11511        4.45383
H         -4.42864       10.00585        2.31397
H         -4.73233       11.28909        0.45678
H         -5.20997       11.11209       -1.91683
H         -4.52429       10.46672       -3.97635
H          1.75241        9.79646       -7.83790
H          0.67799        4.01587       -6.08475
H          4.36126        5.05024       -9.30892
H          5.29999        2.81099       -8.94365
H          5.26961        0.65523       -7.75812
H          3.49422        0.15670       -6.10162
H          1.72272        1.80434       -5.64670
