134

C          3.53806        2.33252        0.71111
C          3.36525        2.78049        1.97449
C          4.46302        3.01282        2.85061
N          5.36437        3.20714        3.55426
C          2.06287        2.94850        2.53264
N          1.00540        3.06659        2.99486
C          4.79529        1.86498        0.09782
C          4.47262        0.84661       -0.81577
C          5.42383        0.19163       -1.57313
C          6.74957        0.63489       -1.47691
C          7.07977        1.73204       -0.62435
C          6.09540        2.32978        0.18143
C          8.39022        2.22749       -0.62529
C          9.36992        1.64469       -1.42911
C          9.05733        0.54857       -2.22856
C          7.75576        0.04599       -2.25291
C          3.00220        0.76711       -0.98665
O          2.38077       -0.00808       -1.67922
C          2.48699        1.95748       -0.23256
C          1.48016        2.66349       -0.77129
C          1.28001        4.05676       -0.51842
C          2.21794        5.07427       -0.29278
C          1.60124        6.33468       -0.15728
C          0.24137        6.24949       -0.34794
S         -0.33408        4.70980       -0.59142
C         -0.30334        7.55290       -0.32607
C          0.70923        8.45816       -0.10341
C          1.97487        7.73576        0.05380
C          3.18956        8.23455        0.35353
C          3.39972        9.62839        0.55058
N          3.56962       10.76465        0.70518
C          4.32113        7.38490        0.51362
N          5.21902        6.66042        0.64125
C          0.22614        9.78748       -0.11788
C         -1.14991        9.84325       -0.38306
S         -1.80118        8.23087       -0.56364
C         -2.02460       11.03712       -0.55056
C         -1.50330       12.24649       -1.03360
C         -2.30736       13.40529       -1.19055
C         -3.66820       13.41017       -0.85093
C         -4.19547       12.19262       -0.38237
C         -3.39253       11.03049       -0.23806
C         -4.52191       14.67844       -0.89297
C         -4.54134       15.57558        0.33868
C         -5.51788       15.47364        1.34242
C         -5.45194       16.25997        2.51135
C         -4.45080       17.21569        2.66700
C         -3.49817       17.36554        1.66573
C         -3.52432       16.53244        0.53103
C         -5.23294       15.03809       -2.01967
C         -5.03231       14.31914       -3.32492
C         -5.83395       13.23372       -3.70062
C         -5.58609       12.54168       -4.89495
C         -4.53873       12.92859       -5.72931
C         -3.78573       14.05460       -5.40889
C         -4.04797       14.76012       -4.22721
C         -6.23248       16.16496       -1.99802
C         -5.90647       17.46089       -2.40677
C         -6.86439       18.49743       -2.37356
C         -8.19159       18.27223       -1.96530
C         -8.52090       16.95115       -1.61904
C         -7.56243       15.91862       -1.63373
C         -9.17241       19.39509       -1.89268
C         -8.98956       20.75485       -2.18604
C        -10.14971       21.51828       -1.91711
C        -11.17739       20.73004       -1.44625
S        -10.81281       19.11691       -1.33738
C        -12.28132       21.55324       -1.12757
C        -11.94192       22.85466       -1.40577
C        -10.58402       22.91694       -1.94022
C         -9.90349       24.00351       -2.34512
C        -10.45678       25.32023       -2.30493
N        -10.87626       26.40474       -2.30326
C         -8.58135       23.90385       -2.85764
N         -7.50260       23.81504       -3.27708
C        -12.97846       23.74199       -1.08000
C        -14.05591       23.10871       -0.45959
S        -13.80466       21.36422       -0.48557
C        -15.24981       23.61813        0.15882
C        -15.32753       24.76314        0.86464
C        -16.40932       25.23249        1.79053
C        -17.74702       25.09133        1.63730
C        -18.68842       25.68081        2.51956
N        -19.46620       26.16615        3.25660
C        -18.30931       24.38198        0.53225
N        -18.75364       23.78972       -0.35863
C        -15.72099       26.05344        2.84207
C        -14.41241       26.28725        2.41710
C        -14.18267       25.69885        1.11532
O        -13.26470       26.05306        0.40866
C        -13.44202       26.96284        3.13633
C        -13.79691       27.45945        4.37955
C        -15.13034       27.28622        4.85033
C        -16.08256       26.57027        4.07740
C        -15.46404       27.83740        6.09393
C        -14.51002       28.51689        6.85850
C        -13.20212       28.64940        6.39954
C        -12.84557       28.12485        5.16188
H          5.12670       -0.58749       -2.26917
H          6.35126        3.18127        0.80739
H          8.65857        3.08554       -0.01109
H         10.37913        2.04918       -1.43101
H          9.82597        0.09045       -2.84575
H          7.53229       -0.80183       -2.89720
H          0.87657        2.21032       -1.55944
H          3.28590        4.89440       -0.27406
H          0.82227       10.67928        0.03422
H         -0.45046       12.31153       -1.30467
H         -1.83862       14.30470       -1.57831
H         -5.24329       12.11844       -0.10190
H         -3.86152       10.12617        0.14479
H         -6.34590       14.77904        1.23893
H         -6.18273       16.12480        3.30544
H         -4.41238       17.83578        3.56251
H         -2.72492       18.12331        1.77437
H         -2.72698       16.64115       -0.19887
H         -6.65568       12.91299       -3.06756
H         -6.20228       11.68849       -5.16853
H         -4.31462       12.35812       -6.62826
H         -2.98732       14.37677       -6.07350
H         -3.47215       15.65780       -4.01758
H         -4.90413       17.68568       -2.76087
H         -6.53691       19.49024       -2.67232
H         -9.53223       16.68499       -1.32093
H         -7.87833       14.91415       -1.36171
H         -8.04966       21.15689       -2.53959
H        -12.92338       24.80573       -1.23708
H        -16.09780       22.93637        0.14593
H        -12.44215       27.07637        2.72463
H        -17.07629       26.42618        4.48944
H        -16.47699       27.74930        6.48078
H        -14.78995       28.94287        7.81826
H        -12.45952       29.16650        7.00206
H        -11.82006       28.23829        4.81393
