107

C         -3.19949        2.32824       -1.00394
C         -1.93312        2.82504       -1.26142
C         -0.67289        2.65159       -0.53398
O         -0.58843        1.99537        0.48806
N          0.30372        3.32878       -1.23900
C         -0.23514        3.92907       -2.35767
O          0.26793        4.61368       -3.23306
C         -1.65760        3.59872       -2.38146
C         -2.61641        3.91264       -3.32680
C         -3.89040        3.41008       -3.08369
C         -4.17691        2.64188       -1.95004
C         -5.57365        2.21250       -1.90994
O         -6.04925        1.53796       -1.01554
S         -6.46021        2.78802       -3.30713
C         -5.04584        3.58746       -3.95684
O         -5.01595        4.20783       -5.00390
C          1.63689        3.30476       -0.87374
C          2.63168        3.93622       -1.51674
C          4.04525        3.76993       -1.16804
C          4.82133        2.77710       -1.77765
C          4.47413        1.68526       -2.70160
O          3.34394        1.47464       -3.10399
N          5.63368        0.97045       -2.95336
C          6.70106        1.52266       -2.29314
O          7.87947        1.22435       -2.26047
C          6.18022        2.64412       -1.52116
C          6.85903        3.45495       -0.63631
C          6.09543        4.42851       -0.00614
C          4.72420        4.59122       -0.25129
C          4.16391        5.66957        0.57866
O          2.98743        5.97224        0.63677
S          5.40494        6.46046        1.53761
C          6.63546        5.36740        0.96796
O          7.79901        5.37286        1.32508
C          5.64040       -0.15862       -3.74812
C          6.71103       -0.86652       -4.14693
C          6.65685       -2.06346       -5.01496
C          7.55987       -3.12719       -4.80921
C          8.65120       -3.32002       -3.83014
O          8.89198       -2.52465       -2.94223
N          9.24152       -4.54065       -4.09334
C          8.58902       -5.18874       -5.11359
O          8.79105       -6.28036       -5.61040
C          7.53987       -4.28284       -5.58588
C          6.65109       -4.47161       -6.61955
C          5.76736       -3.43111       -6.85156
C          5.77020       -2.23501       -6.10178
C          4.79555       -1.27541       -6.66999
O          4.69316       -0.10014       -6.37798
S          3.80265       -2.00029       -7.91934
C          4.75717       -3.45418       -7.90631
O          4.60187       -4.39082       -8.66822
C         10.31261       -5.10241       -3.42342
C         11.23257       -4.41819       -2.72600
C         12.32589       -5.07833       -2.00574
C         13.50289       -5.49203       -2.63644
C         13.92821       -5.44021       -4.04306
O         13.27805       -4.91693       -4.92836
N         15.15316       -6.07857       -4.13124
C         15.58397       -6.47862       -2.88751
O         16.60714       -7.02698       -2.52196
C         14.52815       -6.12563       -1.94149
C         14.46264       -6.39226       -0.58648
C         13.28937       -6.00201        0.04874
C         12.24248       -5.36572       -0.63096
C         11.09854       -5.11742        0.26204
O         10.03652       -4.62988       -0.07260
S         11.42367       -5.66189        1.89759
C         13.00474       -6.24755        1.45884
O         13.77729       -6.80334        2.21783
C         15.80765       -6.24982       -5.33669
C         16.98647       -6.86295       -5.52093
C         17.62393       -6.95097       -6.83713
C         18.51935       -5.96740       -7.27264
C         18.97923       -4.70905       -6.66002
O         18.59856       -4.30807       -5.57574
N         19.86607       -4.11737       -7.54086
C         20.01415       -4.88294       -8.67308
O         20.67793       -4.72725       -9.68174
C         19.16275       -6.05425       -8.50208
C         18.97554       -7.10757       -9.37591
C         18.08210       -8.08546       -8.95790
C         17.40554       -8.01454       -7.73288
C         16.47883       -9.14866       -7.57616
O         15.67980       -9.28227       -6.66860
S         16.61497      -10.28594       -8.90724
C         17.75954       -9.27196       -9.74191
O         18.24030       -9.51039      -10.83427
C         20.47725       -2.90812       -7.27512
C         21.33480       -2.25735       -8.07275
H         -3.41606        1.71994       -0.13122
H         -2.38277        4.50188       -4.20865
H          1.84850        2.68337       -0.00585
H          2.44660        4.56834       -2.38190
H          7.91740        3.32006       -0.43372
H          4.64088       -0.44650       -4.06421
H          7.70709       -0.58247       -3.80975
H          6.64688       -5.37244       -7.22638
H         10.38937       -6.18438       -3.52541
H         11.21944       -3.33084       -2.67564
H         15.26479       -6.90387       -0.06150
H         15.27520       -5.83113       -6.18951
H         17.54551       -7.30492       -4.69806
H         19.49083       -7.15818      -10.33072
H         20.21413       -2.46131       -6.31775
H         21.65241       -2.63246       -9.03810
H         21.75552       -1.30583       -7.76456
