100

C          1.04308        4.68292       -4.84851
C         -0.39972        4.39070       -5.16270
O         -0.98528        3.35458       -4.92527
C         -0.95852        5.63481       -5.74881
C          0.07630        6.58419       -5.89426
C          1.38215        5.95216       -5.51703
C          2.59481        6.34595       -5.96525
C          3.75921        5.52699       -5.89255
N          4.71639        4.87243       -5.87818
C          2.80979        7.56624       -6.66016
N          2.99202        8.56944       -7.22243
C         -0.23931        7.85043       -6.36363
C         -1.55578        8.12998       -6.75029
C         -2.58155        7.17205       -6.63825
C         -2.30054        5.89517       -6.09870
C         -3.37060        4.98298       -5.95139
C         -4.66647        5.31617       -6.35235
C         -4.92172        6.56096       -6.91453
C         -3.88655        7.48420       -7.05308
C          1.64664        3.90660       -3.93371
C          2.86351        4.16943       -3.23002
C          3.13627        5.34323       -2.36038
N          4.33345        5.43337       -1.85658
C          4.94690        4.31817       -2.33758
C          4.03693        3.54022       -3.13865
C          4.75720        2.33131       -3.65816
S          4.07277        1.06230       -4.48637
C          6.17186        2.55777       -3.16438
C          6.15327        3.76132       -2.34333
N          7.38870        4.04697       -1.86008
C          8.12036        3.10017       -2.37514
C          7.43079        2.10181       -3.22935
C          8.03105        1.06618       -3.99364
S          7.46064        0.81771       -5.60863
C          8.45995       -0.51645       -5.86828
C          9.35048       -0.73140       -4.83907
C         10.38107       -1.81531       -4.91615
C          9.12596        0.21743       -3.75972
C          9.93532        0.25919       -2.56315
C         11.05303        1.00209       -2.46324
C         11.89977        1.12324       -1.28961
C         12.86684        2.05632       -1.22482
C         13.76202        2.26063       -0.12689
C         14.20080        1.25971        0.88231
N         15.01288        1.67837        1.81100
C         15.16439        2.99268        1.50666
C         14.42813        3.33374        0.31047
C         14.60420        4.80180        0.04567
S         14.12197        5.69698       -1.26605
C         15.33151        5.25781        1.27792
C         15.70196        4.08255        2.04198
N         16.37620        4.42726        3.16626
C         16.35491        5.72778        3.12540
C         15.66804        6.35449        1.95784
C         15.45825        7.76637        1.82921
C         14.29491        8.42463        1.70345
C         14.26760        9.91680        1.48946
O         15.16170       10.69167        1.75809
C         12.95219       10.21046        0.85440
C         12.23964        8.99995        0.72207
C         12.91274        7.97899        1.56230
C         12.25553        7.09914        2.35600
C         12.88371        6.50622        3.48954
N         13.39605        6.07133        4.43511
C         10.86192        6.84226        2.23489
N          9.72747        6.61969        2.14043
C         11.10701        8.95000       -0.06849
C         10.63590       10.14109       -0.63006
C         11.25388       11.38366       -0.36764
C         12.44823       11.43780        0.39281
C         13.02018       12.70128        0.66488
C         12.41257       13.87691        0.21623
C         11.24931       13.81297       -0.54272
C         10.68366       12.57439       -0.84504
H          0.48676        8.65041       -6.45850
H         -1.77901        9.12036       -7.14748
H         -3.20861        3.99672       -5.52096
H         -5.47376        4.59837       -6.22846
H         -5.92661        6.81670       -7.24104
H         -4.11038        8.45495       -7.49149
H          1.12915        3.00712       -3.58924
H          2.33739        6.08003       -2.18188
H          9.20405        3.03777       -2.21803
H          8.37875       -1.06959       -6.79452
H         10.25898       -2.39540       -5.84138
H         10.28585       -2.51580       -4.08216
H         11.39098       -1.39610       -4.93091
H          9.59557       -0.33794       -1.71882
H         11.36126        1.59102       -3.32663
H         11.71184        0.45098       -0.45343
H         12.98877        2.75122       -2.05466
H         13.83486        0.22430        0.81465
H         16.78603        6.37468        3.90453
H         16.37627        8.35632        1.87421
H         10.57571        8.02383       -0.26877
H          9.74366       10.10037       -1.25505
H         13.92377       12.78569        1.26639
H         12.84451       14.84301        0.46707
H         10.77460       14.72662       -0.89276
H          9.77186       12.54925       -1.43921
