100

C          0.76282       -1.20188       -5.92403
C          0.63210       -2.29998       -5.10318
S          0.05380       -1.87083       -3.55484
C         -0.02563       -0.21835       -3.97160
C          0.37904        0.01965       -5.27802
C          0.35252        1.35563       -5.73456
C         -0.07136        2.40544       -4.88732
C         -0.47340        2.15233       -3.55055
C         -0.44339        0.82780       -3.12451
S         -0.95494        0.63882       -1.50824
C         -1.21210        2.31478       -1.32665
C         -0.91282        3.00783       -2.47863
C         -0.06841        3.77378       -5.35916
C         -1.18062        4.53755       -5.97615
N         -0.92705        5.77432       -6.30945
C          0.37596        5.92545       -5.95007
C          0.89019        4.69900       -5.38924
C          2.32467        4.88910       -5.01581
S          3.36085        3.77394       -4.36099
C          2.55839        6.32340       -5.39829
C          1.32480        6.85513       -5.94806
N          1.47562        8.15994       -6.29435
C          2.71303        8.40296       -5.96874
C          3.48942        7.27689       -5.39210
C          4.85107        7.35361       -4.93449
C          5.79110        6.55397       -5.50521
C          7.10534        6.44028       -4.89860
C          8.15697        5.62175       -5.17448
C          8.51930        4.80967       -6.40671
C         10.05339        4.73503       -6.70934
N         10.69298        6.02357       -6.95556
C          7.99810        3.35333       -6.40169
N          6.54814        3.22534       -6.35666
C          8.92226        5.64197       -3.93180
C          9.73021        4.71071       -3.41055
C         10.33105        4.83337       -2.02538
C          9.96008        6.13369       -1.30930
C          9.09278        7.03450       -1.80858
C          8.47749        6.72588       -3.06950
C          7.36182        7.19089       -3.64426
C          6.43457        8.20357       -3.21175
C          5.24423        8.27530       -3.83858
C         11.83447        4.64755       -2.04269
C         12.60673        4.43131       -3.12377
C         14.02418        4.33287       -3.08554
C         14.87789        3.95569       -1.92975
N         16.16158        4.03526       -2.10361
C         16.26518        4.46775       -3.39185
C         14.95765        4.58633       -4.00006
C         15.13811        5.05114       -5.42108
S         14.03166        5.14064       -6.64954
C         16.60767        5.32536       -5.48687
C         17.19997        4.88606       -4.22551
N         18.53242        5.10427       -4.22499
C         18.73855        5.66387       -5.38679
C         17.54836        5.86164       -6.26049
C         17.58728        6.53943       -7.50714
C         17.52265        7.91768       -7.58396
S         17.76121        8.49636       -9.17539
C         17.97139        6.92064       -9.78716
C         17.83047        5.94485       -8.80027
C         17.98224        4.60200       -9.21537
C         18.29341        4.27455      -10.55414
C         18.44466        5.27619      -11.53536
C         18.26821        6.59218      -11.12990
S         18.45768        7.69563      -12.42076
C         18.77619        6.44025      -13.53868
C         18.75501        5.20269      -12.93453
H          1.11835       -1.26828       -6.94485
H          0.84928       -3.33361       -5.33608
H          0.67480        1.57371       -6.75059
H         -1.56532        2.71187       -0.38459
H         -1.00345        4.08497       -2.54854
H         -2.15237        4.04503       -6.13619
H          3.20417        9.37918       -6.10201
H          5.52914        5.85568       -6.28655
H          8.07139        5.31729       -7.27429
H         10.22882        4.10001       -7.58682
H         10.58938        4.23804       -5.89729
H         10.32748        6.44034       -7.80833
H         11.69193        5.86635       -7.12619
H          8.43223        2.78935       -5.56983
H          8.33459        2.86439       -7.32459
H          6.10594        3.97276       -6.88039
H          6.26171        2.35431       -6.79953
H          9.92302        3.78947       -3.94376
H          9.91071        4.01377       -1.42774
H         10.37959        6.30251       -0.32178
H          8.81181        7.92867       -1.26551
H          6.70058        8.87218       -2.40163
H          4.52295        9.02320       -3.51996
H         12.29418        4.72704       -1.05902
H         12.16531        4.38759       -4.11433
H         14.40383        3.61866       -0.99404
H         19.72173        5.98559       -5.74088
H         17.37915        8.63419       -6.78511
H         17.85989        3.79559       -8.49631
H         18.41494        3.22969      -10.82998
H         18.96521        6.66465      -14.58080
H         18.94194        4.28050      -13.47171
