89

C         -9.88482       -8.85881       -4.29407
C        -10.71972       -9.88691       -4.71815
C        -12.04109       -9.96958       -4.21649
C        -12.88237      -11.03533       -4.68303
N        -13.54813      -11.89535       -5.06724
C        -12.51722       -9.02952       -3.27707
C        -13.84880       -9.09706       -2.74585
N        -14.91715       -9.12651       -2.29720
C        -11.67627       -8.00784       -2.83318
C        -10.39070       -7.95494       -3.35020
C         -9.37149       -6.97799       -2.96497
O         -9.59246       -5.97898       -2.31473
C         -8.09262       -7.44786       -3.59410
C         -8.47057       -8.47291       -4.60237
C         -7.75058       -8.87186       -5.68110
C         -8.26387       -9.77007       -6.66013
N         -8.69875      -10.49225       -7.45653
C         -6.44746       -8.36948       -5.96437
N         -5.38508       -7.95541       -6.18050
C         -6.88416       -7.04716       -3.16451
C         -6.58664       -6.14475       -2.06344
C         -5.84469       -5.04141       -2.26813
C         -5.44084       -4.19782       -1.13729
C         -5.29796       -2.85393       -1.26909
C         -4.92883       -2.02481       -0.16970
N         -4.62369       -1.35322        0.72606
C         -5.57296       -2.19121       -2.50357
N         -5.78014       -1.66805       -3.51963
C         -5.11735       -4.91668        0.11305
C         -5.77773       -6.03585        0.49637
S         -7.15282       -6.57183       -0.46105
C         -5.46614       -6.84373        1.73313
C         -5.65385       -8.25236        1.87194
C         -5.34588       -8.98402        3.08326
N         -5.60370      -10.31085        3.15446
C         -6.16828      -10.93904        2.08629
C         -6.43547      -10.26343        0.92778
N         -6.14354       -8.94477        0.81897
C         -7.05348      -10.84842       -0.23061
N         -7.56332      -11.28686       -1.17517
C         -6.42685      -12.33743        2.23832
N         -6.63515      -13.47674        2.31849
C         -4.76747       -8.36872        4.21002
C         -4.55894       -6.96645        4.13087
C         -4.94169       -6.19012        2.89041
N         -4.73035       -4.87163        3.04449
S         -4.06947       -4.62880        4.53634
N         -4.01233       -6.18885        5.08201
C         -4.36609       -9.08317        5.44697
C         -3.14456       -9.63894        5.57901
C         -2.76840      -10.39419        6.78682
C         -1.89008      -11.43149        6.75224
C         -1.55279      -12.15928        7.93360
N         -1.32392      -12.70340        8.93192
C         -1.33236      -11.89928        5.52716
N         -0.88831      -12.25584        4.51596
C         -3.35817       -9.94553        8.05393
C         -4.60355       -9.43741        8.11090
S         -5.59916       -9.20811        6.67941
C         -5.15690       -8.94967        9.36132
C         -5.35677       -9.55435       10.54513
C         -5.65159       -8.62377       11.68989
O         -5.92919       -7.44337       11.64948
C         -5.47322       -9.40603       12.91743
C         -5.59921       -8.91093       14.21159
C         -5.43747       -9.80029       15.27866
C         -5.14844      -11.15418       15.01711
C         -4.99864      -11.61546       13.68668
C         -5.16315      -10.73978       12.61509
C         -5.17463      -10.90615       11.11690
C         -5.20148      -12.09979       10.47236
C         -5.57780      -12.24727        9.10741
N         -5.90811      -12.43700        8.01231
C         -4.92247      -13.33893       11.11712
N         -4.67834      -14.34075       11.64892
C         -5.03210      -12.10868       16.08649
N         -4.95426      -12.89618       16.93366
C         -5.58180       -9.30725       16.62031
N         -5.69811       -8.89494       17.69714
H        -10.38783      -10.65007       -5.41830
H        -11.99884       -7.27709       -2.09334
H         -5.97553       -7.44342       -3.61108
H         -5.50106       -4.78418       -3.26840
H         -4.27348       -4.53310        0.67981
H         -2.39631       -9.52010        4.79849
H         -2.74569       -9.99488        8.95385
H         -5.38294       -7.88005        9.29331
H         -5.83084       -7.85963       14.37655
H         -4.77460      -12.66955       13.55086
