99

C        -17.88910       -5.39630        3.08832
C        -18.88763       -4.43413        3.00612
C        -19.04378       -3.69695        1.80705
C        -20.07337       -2.70174        1.75292
N        -20.90518       -1.89694        1.72827
C        -18.20088       -3.91688        0.69799
C        -18.32141       -3.16300       -0.51826
N        -18.38160       -2.56681       -1.51045
C        -17.19073       -4.87255        0.78427
C        -17.05800       -5.57222        1.97391
C        -15.98137       -6.52189        2.26449
O        -15.19674       -6.92952        1.43673
C        -16.08583       -6.81692        3.73263
C        -17.42136       -6.32304        4.16352
C        -18.16045       -6.75959        5.21556
C        -19.48697       -6.30884        5.45494
N        -20.57206       -5.92475        5.62888
C        -17.69512       -7.75918        6.11928
N        -17.30928       -8.56525        6.85928
C        -15.06824       -7.26362        4.48694
C        -13.77507       -7.59490        3.99127
C        -12.63703       -6.78901        3.92243
C        -11.50173       -7.54237        3.56646
C        -11.83760       -8.83215        3.22005
S        -13.43345       -9.22253        3.46883
C        -10.69275       -9.46678        2.69392
C         -9.63024       -8.59394        2.76463
C        -10.07065       -7.33771        3.36297
C         -9.33373       -6.24960        3.65604
C         -7.94247       -6.20168        3.38987
N         -6.80289       -6.15834        3.16199
C         -9.90239       -5.08788        4.24350
N        -10.36170       -4.13235        4.71530
C         -8.47665       -9.12566        2.16066
C         -8.77446      -10.32778        1.50615
S        -10.37229      -10.88020        1.88583
C         -7.94390      -10.97465        0.51811
C         -8.27733      -11.70684       -0.60721
C         -7.22723      -11.65577       -1.61000
N         -7.38360      -12.10858       -2.88804
C         -8.61800      -12.68557       -3.07126
C         -8.88304      -13.21252       -4.43288
O         -8.11100      -13.05129       -5.36941
C        -10.13769      -13.95822       -4.65750
C        -11.05259      -14.10302       -3.69905
C        -10.87285      -13.50910       -2.36162
O        -11.75509      -13.65247       -1.52453
C         -9.60904      -12.78049       -2.08896
N         -9.50249      -12.25570       -0.83313
C         -6.12395      -10.97332       -1.14276
S         -6.23881      -10.77356        0.56488
C         -5.06978      -10.26550       -1.81246
C         -3.74730      -10.11446       -1.39054
C         -3.18673       -8.94684       -1.95019
C         -4.05670       -8.34673       -2.83155
S         -5.48967       -9.14474       -3.07031
C         -3.49283       -7.13964       -3.27742
C         -2.24805       -6.98743       -2.71447
C         -1.99772       -8.10436       -1.80132
C         -0.96977       -8.26326       -0.94501
C          0.07766       -7.30675       -0.85276
N          0.92307       -6.51575       -0.77318
C         -0.91236       -9.36261       -0.04516
N         -0.88283      -10.25461        0.69671
C         -1.61810       -5.81319       -3.17869
C         -2.43220       -5.11658       -4.07928
S         -4.01974       -5.84705       -4.16487
C         -2.13863       -3.89646       -4.75657
C         -2.59495       -3.52804       -5.96395
C         -2.55341       -2.05931       -6.25456
O         -1.83628       -1.21317       -5.76614
C         -3.65577       -1.81997       -7.20020
C         -4.12974       -0.57619       -7.59055
C         -5.24869       -0.53521       -8.42951
C         -5.86105       -1.73788       -8.84612
C         -5.35704       -2.98920       -8.42283
C         -4.23705       -3.03518       -7.60153
C         -3.44222       -4.14669       -6.99797
C         -3.35685       -5.41673       -7.46841
C         -2.33767       -6.32207       -7.04231
N         -1.50197       -7.05843       -6.71645
C         -4.23832       -5.92828       -8.46139
N         -4.98339       -6.32741       -9.25594
C         -7.01167       -1.72346       -9.70729
N         -7.93874       -1.73118      -10.40295
C         -5.76070        0.74539       -8.82888
N         -6.16252        1.78858       -9.13532
H        -19.54485       -4.20571        3.84373
H        -16.50111       -5.05565       -0.03725
H        -15.16369       -7.34062        5.56531
H        -12.64677       -5.72934        4.14230
H         -7.52309       -8.61686        2.06902
H        -10.27590      -14.38052       -5.64739
H        -11.97259      -14.65558       -3.86028
H         -3.31020      -10.72354       -0.60793
H         -0.62253       -5.47389       -2.91577
H         -1.54738       -3.18047       -4.18228
H         -3.64871        0.33181       -7.23086
H         -5.87438       -3.89019       -8.74441
