85

C         -1.82100       -3.14581        8.82762
C         -1.62090       -4.07742        9.86833
F         -1.34505       -3.65177       11.12490
C         -1.70934       -5.45147        9.62093
F         -1.53178       -6.35337       10.61797
C         -1.97991       -5.90662        8.34244
C         -2.17379       -4.99841        7.30438
C         -2.11229       -3.59266        7.52093
C         -2.34947       -2.69799        6.42476
C         -2.65369       -3.25164        5.14635
C         -2.66696       -4.62408        5.02240
C         -2.43405       -5.49923        6.04804
C         -2.95330       -5.03495        3.70051
O         -2.75372       -6.16665        3.29923
C         -3.34234       -3.88541        2.90967
C         -2.96264       -2.68219        3.77155
C         -2.90517       -1.39469        3.38677
C         -3.09242       -0.96899        2.00660
N         -3.22910       -0.54120        0.93785
C         -2.56917       -0.31714        4.30981
N         -2.35935        0.55389        5.05954
C         -3.92251       -3.98661        1.67672
C         -4.37229       -5.29107        1.03591
C         -4.41855       -5.47077       -0.32610
C         -4.81435       -6.73853       -0.73536
C         -5.15171       -7.64834        0.28106
Se        -5.03038       -6.78610        1.89541
C         -5.57435       -9.12973        0.10130
C         -5.90414       -9.98675        1.20626
C         -6.30311      -11.35528        1.00231
N         -6.56789      -12.13295        2.07146
C         -6.57500      -11.65011        3.31389
C         -6.23529      -10.30715        3.54860
N         -5.87325       -9.52714        2.49302
C         -6.19237       -9.77807        4.97290
N         -6.15678       -9.33915        6.15447
C         -6.90456      -12.55670        4.48857
N         -7.17796      -13.30880        5.46306
C         -6.42690      -11.94014       -0.26205
C         -6.09560      -11.11649       -1.35606
C         -5.67833       -9.74163       -1.18156
N         -5.42862       -9.08260       -2.34071
S         -5.74383      -10.20436       -3.50239
N         -6.19476      -11.53448       -2.64458
C         -6.97310      -13.36552       -0.40931
C         -6.67920      -14.21540       -1.46338
C         -7.46519      -15.35397       -1.52216
C         -8.39424      -15.48420       -0.50595
Se        -8.23526      -14.14116        0.72042
C         -9.59198      -16.37412       -0.66978
C        -10.36309      -17.06607        0.22264
C        -11.66312      -17.63420       -0.16682
O        -12.14894      -17.60561       -1.28722
C        -12.34597      -18.12525        1.01943
C        -13.59194      -18.74426        1.08158
C        -14.06843      -19.18735        2.32402
C        -13.30608      -18.95238        3.50223
C        -13.81212      -19.39029        4.74142
C        -15.03307      -20.07640        4.80485
C        -15.75942      -20.33185        3.63804
C        -15.28561      -19.88108        2.40467
F        -16.92601      -21.02217        3.69915
F        -15.50680      -20.50952        6.00011
C        -12.04203      -18.31967        3.40943
C        -11.55739      -17.92863        2.13996
C        -10.21996      -17.42175        1.67425
C         -9.06430      -17.57259        2.35161
C         -7.79330      -17.49886        1.66196
N         -6.73888      -17.46131        1.18454
C         -9.02025      -18.00810        3.73038
N         -8.88819      -18.35725        4.82650
H         -1.75110       -2.08941        9.05154
H         -2.04653       -6.97368        8.15418
H         -2.30784       -1.62944        6.58822
H         -2.47656       -6.56465        5.85977
H         -4.13109       -3.08971        1.10839
H         -4.11657       -4.70406       -1.02887
H         -4.81377       -6.94475       -1.78639
H         -5.95292      -13.99143       -2.22962
H         -7.40803      -16.04534       -2.35113
H         -9.94709      -16.37965       -1.69624
H        -14.16228      -18.90702        0.17571
H        -13.26067      -19.21749        5.65782
H        -15.86055      -20.09003        1.51002
H        -11.46286      -18.18156        4.30833
