77

C         -0.96834       -0.02120       -1.92806
O         -1.54346       -0.05309       -0.86162
C         -1.38520        0.76391       -3.09900
C         -0.35781        0.80345       -4.05428
C         -0.62265        1.40045       -5.28175
C         -1.89475        1.95748       -5.51493
C         -2.89741        1.91778       -4.52416
C         -2.63811        1.31398       -3.29252
Br        -4.64501        2.61098       -4.79048
Br        -2.18449        2.73035       -7.22926
C          0.82505        0.08156       -3.49711
C          2.11217        0.23282       -3.87418
C          2.49685        1.09438       -4.95374
N          2.80407        1.79495       -5.82075
C          3.18877       -0.39372       -3.18507
N          4.06470       -0.90952       -2.62314
C          0.31333       -0.68252       -2.33757
C          0.71525       -1.87755       -1.87199
C         -0.03715       -2.65977       -0.94939
C          0.06510       -2.73943        0.41644
C         -0.72184       -3.80037        1.00446
C         -0.64565       -4.02331        2.48288
C         -1.44838       -4.51809        0.04107
S         -1.25344       -3.72107       -1.49809
C         -2.33142       -5.74372        0.10562
C         -2.46083       -6.70560       -0.94527
C         -3.35627       -7.84523       -0.88173
N         -3.49952       -8.64875       -1.96738
C         -2.77125       -8.40226       -3.07050
C         -1.88134       -7.37092       -3.11311
N         -1.71553       -6.54612       -2.06335
C         -4.09791       -8.16403        0.27966
C         -3.99033       -7.24845        1.36051
C         -3.12847       -6.00706        1.25896
N         -3.25307       -5.24100        2.35525
S         -4.20962       -6.02397        3.44002
N         -4.59080       -7.36070        2.56066
C         -4.94478       -9.37540        0.44827
C         -6.12607       -9.57199        1.14650
C         -6.64855      -10.91601        1.06439
C         -7.88851      -11.35533        1.78335
C         -5.85679      -11.71457        0.24663
S         -4.41215      -10.87960       -0.17124
C         -6.01917      -13.09383       -0.09508
C         -5.64122      -13.66252       -1.25006
C         -5.42657      -15.14668       -1.24156
O         -5.93124      -15.97300       -0.51281
C         -4.37773      -15.38961       -2.25020
C         -4.05586      -14.19515       -2.91934
C         -5.02998      -13.15675       -2.48903
C         -5.44477      -12.11600       -3.24528
C         -6.63295      -11.40616       -2.95344
N         -7.65213      -10.85964       -2.79941
C         -4.79573      -11.71643       -4.45132
N         -4.23335      -11.40719       -5.41961
C         -2.98864      -14.19084       -3.80382
C         -2.30293      -15.39157       -4.05627
C         -2.67920      -16.58765       -3.40863
C         -3.72236      -16.58599       -2.47986
Br        -1.81349      -18.24772       -3.72724
Br        -0.87123      -15.30777       -5.30554
H          0.11392        1.41979       -6.07968
H         -3.39637        1.23907       -2.51630
H          1.59478       -2.37219       -2.27347
H          0.71932       -2.09249        0.99024
H          0.20426       -3.48032        2.91335
H         -0.51209       -5.07988        2.72782
H         -1.53460       -3.62225        2.97815
H         -2.92186       -9.06485       -3.91438
H         -1.28096       -7.16104       -3.99006
H         -6.61620       -8.79098        1.71808
H         -8.62341      -10.54512        1.82791
H         -7.64086      -11.64749        2.81038
H         -8.36490      -12.20921        1.29299
H         -6.38103      -13.73736        0.70681
H         -2.65826      -13.28087       -4.29881
H         -4.01339      -17.48322       -1.93869
