89

C          2.86689        2.27086        1.78394
C          2.81924        2.89924        2.97988
C          2.74746        2.18391        4.20838
N          2.66362        1.57819        5.19469
C          3.02708        4.30787        3.07486
N          3.27774        5.43841        3.15294
C          3.18848        0.84633        1.57258
C          4.01801        0.76686        0.43887
C          4.56838       -0.42141       -0.00299
C          4.19516       -1.59773        0.66256
C          3.26736       -1.54310        1.74727
C          2.78771       -0.30865        2.21587
C          2.82216       -2.73664        2.32841
C          3.29714       -3.96712        1.87625
C          4.23923       -4.01921        0.85232
C          4.68635       -2.84291        0.24837
C          4.04303        2.07619       -0.25957
O          4.66545        2.36712       -1.25732
C          3.03086        2.90349        0.48099
C          2.22131        3.74504       -0.18202
C          0.92691        4.21723        0.26606
C         -0.16297        3.48727        0.60185
C         -1.39688        4.24588        0.84732
C         -1.31633        5.58462        0.66999
Si         0.44892        6.05404        0.16696
C         -2.36431        6.60333        0.86189
C         -2.61596        7.25827        2.09038
C         -3.65920        8.24880        2.24296
N         -3.87071        8.83252        3.44967
C         -3.08327        8.48552        4.48999
C         -2.08647        7.55482        4.34297
N         -1.84808        6.93692        3.15236
C         -1.24083        7.14750        5.42618
N         -0.57459        6.81870        6.32024
C         -3.37564        9.12898        5.74367
N         -3.59523        9.62256        6.77453
C         -4.48602        8.64098        1.18021
C         -4.27084        8.01291       -0.07774
C         -3.19052        6.97001       -0.24051
N         -3.13352        6.48014       -1.49137
S         -4.30819        7.24883       -2.37244
N         -4.95316        8.23828       -1.21389
C         -5.53964        9.64940        1.30229
C         -5.43968       10.98321        1.11098
C         -6.65321       11.75064        1.39207
C         -7.71797       11.04189        1.82372
Si        -7.27113        9.20509        1.89072
C         -8.99582       11.55154        2.26567
C         -9.21264       12.35618        3.32293
C        -10.48618       12.86437        3.89895
C        -11.63592       13.14083        3.23309
C        -12.77542       13.72512        3.86104
N        -13.70847       14.19331        4.36733
C        -11.77836       12.92584        1.83126
N        -11.90187       12.74448        0.69183
C        -10.20043       13.20040        5.32862
C         -8.81502       13.15368        5.51931
C         -8.12834       12.72708        4.29918
O         -6.92237       12.68492        4.17859
C         -8.18724       13.40849        6.72762
C         -8.98343       13.71790        7.82888
C        -10.39816       13.76326        7.68590
C        -10.99648       13.49669        6.43023
C        -11.17451       14.06848        8.81506
C        -10.57431       14.32009       10.05203
C         -9.18952       14.26836       10.18274
C         -8.39726       13.96829        9.07667
H          5.21837       -0.43443       -0.87327
H          2.08295       -0.27597        3.04204
H          2.08818       -2.72118        3.13201
H          2.93160       -4.88616        2.32732
H          4.61873       -4.98002        0.51392
H          5.41348       -2.91077       -0.55837
H          2.47557        3.99742       -1.21432
H         -0.18735        2.40236        0.62755
H         -2.30094        3.71864        1.13222
H          1.14032        6.88990        1.17398
H          0.60083        6.58284       -1.20898
H         -4.53453       11.49863        0.81398
H         -6.63764       12.83263        1.32106
H         -7.97569        8.31762        0.93151
H         -7.35215        8.60304        3.24672
H         -9.82768       11.18586        1.66748
H         -7.10481       13.34106        6.80096
H        -12.08016       13.51170        6.36853
H        -12.25956       14.11474        8.74420
H        -11.19010       14.55579       10.91649
H         -8.72339       14.46007       11.14602
H         -7.31621       13.92723        9.19832
