101

C          0.50843        2.13510        1.23940
C          0.82930        1.15917        2.12426
C          2.07090        0.46378        2.08997
N          3.08033       -0.10607        2.06080
C         -0.02710        0.79068        3.20240
N         -0.73152        0.48646        4.07265
C          1.39634        2.67991        0.16286
C          0.88852        3.91538       -0.23938
C          1.43180        4.70955       -1.24146
C          2.59243        4.23595       -1.88456
C          3.12230        2.99733       -1.48971
C          2.53137        2.19619       -0.47636
S          4.54376        2.61829       -2.39695
C          4.44245        4.05303       -3.28006
C          3.36886        4.82912       -2.93698
Br         5.67973        4.53259       -4.60151
C         -0.31473        4.24693        0.51914
O         -0.80703        5.35420        0.56853
C         -0.70771        2.98911        1.24320
C         -1.96037        2.68883        1.63617
C         -3.10963        3.50068        1.38195
C         -3.39659        4.33855        0.30322
C         -4.63073        4.97977        0.44828
C         -5.30668        4.53292        1.55813
S         -4.47315        3.42830        2.47724
C         -6.58111        5.13522        1.57049
C         -6.68911        5.96830        0.47717
C         -5.44355        5.94138       -0.28274
C         -5.11439        6.63796       -1.38790
C         -3.84255        6.51068       -2.01419
N         -2.81616        6.40147       -2.54919
C         -6.03199        7.53525       -2.00170
N         -6.78441        8.25467       -2.50932
C         -7.96090        6.56077        0.39755
C         -8.78133        6.12230        1.43710
S         -7.94570        5.03915        2.50914
C        -10.17719        6.43480        1.63571
C        -10.86330        6.50890        2.84390
C        -12.24420        6.74743        2.61192
C        -12.49642        6.88623        1.27524
S        -11.18256        6.71463        0.24662
C        -13.81495        7.06153        0.94164
C        -14.71509        7.01995        1.96115
S        -13.78133        6.89356        3.39574
C        -15.99696        7.06059        1.36510
C        -15.77997        7.08728       -0.01715
N        -14.41617        7.21945       -0.26556
C        -13.77548        7.59792       -1.50308
C        -16.77131        6.99459       -1.06191
C        -16.60916        6.42271       -2.32387
C        -17.76733        6.58374       -3.10214
C        -18.78365        7.17164       -2.38299
S        -18.38467        7.59190       -0.82840
C        -19.93731        7.22253       -3.19017
C        -19.64612        6.65611       -4.40984
C        -18.23275        6.29295       -4.45294
C        -17.50685        5.90511       -5.51962
C        -16.10352        5.69151       -5.43067
N        -14.95640        5.53469       -5.34582
C        -18.10069        5.78014       -6.80702
N        -18.62336        5.70383       -7.83924
C        -20.79209        6.54914       -5.21644
C        -21.89626        7.16110       -4.61672
S        -21.50211        7.74525       -3.01945
C        -23.23749        7.29428       -5.07451
C        -23.59694        7.41379       -6.36031
C        -22.87129        7.52192       -7.63268
C        -21.80793        8.32045       -7.90427
C        -21.20697        8.39729       -9.19487
N        -20.71384        8.45509      -10.23986
C        -21.25954        9.22081       -6.94212
N        -20.80180        9.97116       -6.18444
C        -23.71736        6.83866       -8.65063
C        -25.00015        6.67988       -8.11417
C        -25.02085        7.08446       -6.69678
O        -25.98103        7.06740       -5.95652
C        -26.07445        6.15564       -8.82239
C        -25.84690        5.76742      -10.16288
C        -24.54828        5.87429      -10.68626
C        -23.46110        6.38775       -9.93777
S        -24.48615        5.31761      -12.32052
C        -26.14263        5.00025      -12.34129
C        -26.76093        5.25370      -11.14619
Br       -27.04197        4.36399      -13.85579
H          0.96569        5.65209       -1.51868
H          2.98115        1.23754       -0.24550
H          3.13621        5.78160       -3.39894
H         -2.17676        1.74175        2.12119
H         -2.72166        4.48451       -0.52806
H         -8.30205        7.24100       -0.37353
H        -10.41771        6.36623        3.81980
H        -16.95041        7.00655        1.87293
H        -14.49433        8.09261       -2.15985
H        -13.38166        6.69839       -1.98178
H        -12.98472        8.32281       -1.29884
H        -15.69138        5.94417       -2.64065
H        -20.83939        6.06098       -6.18094
H        -24.01825        7.19040       -4.31897
H        -27.05273        6.05834       -8.35888
H        -22.47768        6.42268      -10.39393
H        -27.81895        5.10124      -10.97005
