78

C         -4.85483        0.57266       -5.72494
C         -5.46088        1.56292       -4.93697
C         -4.94941        1.96633       -3.67559
C         -3.78023        1.42008       -3.08547
C         -3.14719        0.42782       -3.87556
C         -3.68784        0.01462       -5.17221
N         -2.89794       -0.93649       -5.68113
O         -1.88508       -1.11825       -4.75801
N         -2.02842       -0.28440       -3.66468
C         -3.25628        1.81840       -1.77403
C         -2.55702        1.07083       -0.82007
C         -2.23534        1.84871        0.31496
C         -2.69893        3.13875        0.18376
S         -3.48429        3.46263       -1.23761
C         -2.33231        3.87865        1.32472
C         -1.62455        3.06024        2.17209
C         -1.53877        1.71860        1.59776
C         -0.95973        0.63416        2.14287
C         -0.33180        0.67323        3.42027
N          0.17995        0.71624        4.45987
C         -0.95086       -0.62119        1.46854
N         -0.94562       -1.64670        0.92539
C         -1.19095        3.75070        3.31722
C         -1.60562        5.08350        3.30341
S         -2.54063        5.43203        1.86713
C         -1.44128        6.12340        4.26282
C         -0.41047        6.23999        5.11202
C          0.78800        5.44408        5.23044
C          1.47457        5.66813        6.35812
C          0.88478        6.68451        7.20364
S         -0.43155        7.48585        6.34418
C          1.21905        6.94432        8.47930
C          2.18230        6.22295        9.28716
C          2.16413        6.56426       10.58417
C          1.20672        7.60568       10.89777
S          0.43149        8.17079        9.44197
C          0.93705        8.01789       12.14722
C         -0.04386        8.99747       12.49937
C         -0.50665       10.12686       11.81481
C         -1.50259       10.80975       12.53035
C         -1.75911       10.19963       13.73276
S         -0.85007        8.84775       14.04506
C         -2.75118       10.93787       14.40523
C         -3.11655       12.01320       13.63180
C         -2.34906       11.99136       12.38326
C         -2.40564       12.84545       11.34336
C         -3.29020       13.95714       11.33478
N         -4.01230       14.86339       11.31739
C         -1.58906       12.68448       10.19137
N         -0.92161       12.56555        9.24258
C         -4.08879       12.80770       14.28277
C         -4.42010       12.27991       15.53627
S         -3.52821       10.81749       15.86117
C         -5.33636       12.78202       16.56280
C         -6.06004       11.95687       17.46189
C         -6.91070       12.45589       18.48198
C         -7.12284       13.82698       18.69441
C         -6.42352       14.67338       17.81449
C         -5.54161       14.16974       16.76182
N         -5.02687       15.23335       16.12539
O         -5.56685       16.34957       16.73553
N         -6.41886       16.01026       17.76986
H         -5.25002        0.26007       -6.68297
H         -6.36873        2.04249       -5.30564
H         -5.50778        2.73621       -3.14147
H         -2.30576        0.02658       -0.96847
H         -0.62311        3.32361        4.13261
H         -2.24991        6.85117        4.32930
H          1.11150        4.73045        4.48854
H          2.38275        5.14241        6.61339
H          2.81762        5.44303        8.89327
H          2.78056        6.09096       11.33650
H          1.46825        7.54434       12.97099
H         -0.13163       10.42087       10.84437
H         -4.52944       13.71988       13.89642
H         -5.97005       10.87221       17.38266
H         -7.41753       11.73982       19.13020
H         -7.76981       14.20604       19.47490
