104

C          0.28992       -0.08778       -2.51750
C          0.96255        0.99951       -1.88582
C          0.95290        2.29116       -2.62024
O          0.93904        2.31092       -3.84008
O          0.89384        3.41010       -1.87817
C          1.66451        0.80774       -0.67407
C          2.44634        1.83215       -0.05508
N          3.01881        2.69411        0.46492
C          1.63758       -0.43532       -0.05135
C          0.95938       -1.45542       -0.69213
C          0.29114       -1.33579       -1.91396
C         -0.21536       -2.69636       -2.27989
C         -1.25938       -2.99148       -3.08880
C         -2.01213       -1.97716       -3.73652
N         -2.63451       -1.12938       -4.23251
C         -1.73969       -4.32683       -3.25802
N         -2.10943       -5.41726       -3.37935
C          0.50197       -3.64661       -1.39185
C          0.88864       -2.82261       -0.20818
O          0.97296       -3.09931        0.96569
C          0.96641       -4.87151       -1.69829
C          1.89830       -5.63001       -0.92192
C          2.19324       -5.65390        0.44296
C          3.19807       -6.57850        0.76519
C          3.63035       -7.24372       -0.35271
S          2.89013       -6.80502       -1.76844
C          4.57256       -8.20890        0.03863
C          4.72546       -8.16354        1.40646
C          3.87782       -7.10087        1.94844
C          3.74829       -6.70191        3.22891
C          4.47838       -7.32885        4.27465
N          5.07990       -7.85273        5.11811
C          2.88255       -5.63599        3.60515
N          2.18253       -4.76875        3.92729
C          5.60877       -9.16712        1.85295
C          6.10534       -9.90777        0.77778
S          5.46404       -9.36427       -0.73957
C          7.02792      -11.01317        0.81492
C          7.92839      -11.39922       -0.18005
C          8.67740      -12.51865        0.22491
C          8.30650      -12.93758        1.48213
S          7.10480      -12.05326        2.20045
C          9.08813      -14.04810        1.83977
C          9.95404      -14.33140        0.81052
C          9.74493      -13.37973       -0.28040
C         10.38534      -13.31289       -1.46306
C         11.41513      -14.23266       -1.81350
N         12.25014      -14.98243       -2.09041
C         10.06677      -12.31700       -2.42445
N          9.80013      -11.49750       -3.20446
C         10.76983      -15.43378        1.11937
C         10.47932      -15.93925        2.38988
S          9.20377      -15.04312        3.15745
C         11.10560      -17.05871        3.05545
C         10.82611      -17.58215        4.32134
C         11.64458      -18.69514        4.60054
C         12.50249      -18.96317        3.55841
S         12.37650      -17.94441        2.26304
C         13.25179      -20.11465        3.86030
C         12.85193      -20.58809        5.08628
C         11.85382      -19.68151        5.65838
C         11.30923      -19.71529        6.89149
C         11.67604      -20.71862        7.83171
N         12.00330      -21.55564        8.56753
C         10.37351      -18.73535        7.32419
N          9.60895      -17.93765        7.67534
C         13.45552      -21.82898        5.37246
C         14.37978      -22.19975        4.38749
S         14.40965      -21.02242        3.09524
C         15.17309      -23.37953        4.23603
C         15.62518      -24.13204        5.24969
C         15.99086      -25.56170        4.97478
O         16.36656      -26.05506        3.93473
C         15.67909      -26.27668        6.23407
C         15.25960      -25.36558        7.21766
C         14.74687      -25.83808        8.41594
C         14.74023      -27.22773        8.66071
C         15.28025      -28.12388        7.70177
C         15.72252      -27.64113        6.45647
C         15.40875      -29.53612        7.93780
N         15.55850      -30.68166        8.04279
C         14.23589      -27.72616        9.97015
O         14.69584      -28.70988       10.51768
O         13.22469      -27.00851       10.50002
C         15.53282      -24.00272        6.70302
C         15.96934      -22.96227        7.45441
C         16.67822      -21.87077        6.86848
N         17.29780      -21.00931        6.40228
C         15.84811      -22.94316        8.87761
N         15.68890      -22.96549       10.02235
H         -0.18681        0.07907       -3.48259
H          0.85015        3.36973       -0.90451
H          2.15788       -0.63150        0.88500
H          0.71786       -5.30406       -2.66677
H          1.67746       -5.06039        1.17689
H          5.88639       -9.36858        2.88122
H          8.02481      -10.87189       -1.12151
H         11.53333      -15.85442        0.47671
H         10.06256      -17.17545        4.97462
H         13.20863      -22.45130        6.22082
H         15.31101      -23.74359        3.21561
H         14.38825      -25.14787        9.17307
H         16.10050      -28.31137        5.68561
H         12.82782      -26.28844        9.97860
