130

C          2.42610       -1.47196       -7.62932
C          3.55084       -2.36785       -8.22968
C          3.26292       -3.47663       -9.04084
C          4.25659       -4.20577       -9.69775
C          5.59320       -3.87757       -9.52661
C          5.92637       -2.77696       -8.75704
C          4.91678       -2.00658       -8.16687
C          2.67201       -0.74363       -6.26267
C          3.81366       -0.91656       -5.45842
C          4.04685       -0.11616       -4.32796
C          3.11663        0.83634       -3.92876
C          1.95285        0.99845       -4.66315
C          1.74070        0.22909       -5.81144
C          0.94236       -2.01199       -7.74241
C          0.11518       -1.24740       -8.50382
C          0.74426       -0.28941       -9.41485
C          0.26836        0.18800      -10.59090
C         -0.97270       -0.23484      -11.14744
N         -1.97470       -0.59240      -11.60928
C          1.02489        1.08281      -11.40732
N          1.62483        1.81604      -12.07767
S          2.38823        0.02929       -8.91458
C         -1.30344       -1.35109       -8.37874
N         -2.44379       -1.44247       -8.18238
C          0.50489       -3.33015       -7.18588
C         -0.05984       -4.35744       -7.90370
N         -0.50501       -4.31980       -9.28856
O         -1.41104       -5.10167       -9.59640
O          0.07170       -3.56271      -10.07921
C          0.07096       -5.64284       -7.24757
C          0.74415       -5.47075       -6.10501
C          0.93690       -4.02354       -5.93076
C          1.17952       -3.53065       -4.70099
C          0.56035       -2.34873       -4.12497
C          0.97815       -2.26341       -2.84973
C          1.92204       -3.33637       -2.59060
N          2.76416       -3.39027       -1.40855
O          3.54884       -4.33630       -1.26389
O          2.64872       -2.45451       -0.60444
C          2.02958       -4.15931       -3.65430
C          2.94147       -5.26850       -3.82680
C          3.77692       -5.34999       -4.87507
C          4.65263       -6.43801       -5.05963
S          5.31546       -7.40733       -3.78963
C          6.33612       -8.31509       -4.85529
C          6.09041       -7.88641       -6.11122
C          5.16184       -6.88233       -6.23057
N          4.87198       -6.46522       -7.49804
C          5.70633       -7.27530       -8.26729
C          5.76564       -7.22801       -9.69000
N          5.80773       -7.15447      -10.84793
C          6.47145       -8.13273       -7.45396
C          7.19310       -9.29386       -4.32698
C          8.36201       -9.55895       -4.92017
C          9.24531      -10.56584       -4.42618
C         10.11369      -11.22757       -5.21387
C         10.85485      -12.16746       -4.38029
C         10.35890      -11.96360       -3.01407
C          9.42132      -11.01179       -3.06154
C         10.73748      -12.59811       -1.81702
N         11.03713      -13.11384       -0.80837
C         11.78652      -13.03010       -4.82378
C         12.52394      -13.96237       -3.98255
C         13.33623      -14.68668       -4.76980
C         13.18641      -14.23590       -6.14133
C         12.26931      -13.25628       -6.19438
C         11.88691      -12.61323       -7.39314
N         11.57520      -12.09168       -8.38213
C         14.19001      -15.70577       -4.24598
C         14.17904      -16.96759       -4.69949
C         15.07064      -18.00727       -4.20042
C         15.13495      -18.40041       -2.90513
C         16.07337      -19.48774       -2.62117
C         16.52966      -19.95289       -1.43235
C         16.19631      -19.36184       -0.18083
N         15.96093      -18.88316        0.84860
C         17.42580      -21.05917       -1.35276
N         18.15235      -21.96592       -1.27059
S         16.62370      -20.18795       -4.14425
C         16.00726      -18.71392       -5.20953
C         17.29074      -17.88837       -5.54293
C         18.35790      -18.47022       -6.25774
C         19.53088      -17.75240       -6.52908
C         19.66030      -16.42873       -6.11969
C         18.62441      -15.82602       -5.42412
C         17.46771      -16.55207       -5.13055
C         15.22222      -19.23208       -6.45001
C         14.42186      -20.39551       -6.40581
C         13.68250      -20.82476       -7.51554
C         13.69409      -20.08569       -8.69176
C         14.44061      -18.91404       -8.75626
C         15.19216      -18.49066       -7.65096
C         14.28726      -17.83346       -1.90746
N         13.59595      -17.35061       -1.11260
H          2.25264       -3.77949       -9.25629
H          3.97357       -5.03410      -10.34586
H          6.37228       -4.45490      -10.01885
H          6.97048       -2.48827       -8.65751
H          5.23269       -1.07797       -7.69363
H          4.58296       -1.64602       -5.69080
H          4.97176       -0.22608       -3.76405
H          3.30091        1.45323       -3.05237
H          1.21627        1.73928       -4.36072
H          0.82749        0.43448       -6.36413
H         -0.29938       -6.57597       -7.64052
H          0.93495       -6.25214       -5.38563
H         -0.20774       -1.74295       -4.57888
H          0.64944       -1.55395       -2.10475
H          2.90653       -6.04217       -3.06007
H          3.78984       -4.56216       -5.62291
H          4.21216       -5.74833       -7.76914
H          7.19771       -8.84842       -7.81826
H          6.88063       -9.81952       -3.42881
H          8.68400       -9.02289       -5.81066
H         10.19829      -11.07531       -6.27865
H          8.86648      -10.62029       -2.21532
H         12.44243      -14.10090       -2.91703
H         13.74539      -14.63945       -6.97306
H         14.84965      -15.38690       -3.43959
H         13.49166      -17.25135       -5.49624
H         18.29819      -19.50332       -6.59815
H         20.35068      -18.23106       -7.05921
H         20.56686      -15.86929       -6.33514
H         18.71183      -14.79234       -5.09645
H         16.72114      -16.02481       -4.55495
H         14.34978      -21.00075       -5.50510
H         13.09390      -21.73814       -7.45694
H         13.11841      -20.41929       -9.55233
H         14.43773      -18.32640       -9.67184
H         15.74915      -17.56005       -7.74639
