108

C          5.03500        3.60036        0.64449
N          4.20638        2.70582        1.30968
C          4.68493        1.57107        2.07530
C          4.97317        1.92511        3.52388
C          2.84322        3.02630        1.14560
O          1.85253        2.48343        1.58754
C          2.89961        4.21803        0.27054
C          4.28606        4.50492        0.01565
C          4.35693        5.68651       -0.85857
O          5.35997        6.20137       -1.30732
N          2.99682        6.02090       -1.03739
C          2.59198        7.09001       -1.93018
C          2.34640        6.59978       -3.34760
C          2.15539        5.12657       -0.36459
C          0.71922        5.19960       -0.37065
C          0.04417        6.27179        0.06918
C         -1.37305        6.35510        0.10136
O         -2.00377        7.53522        0.45068
C         -3.37281        7.36120        0.46028
C         -3.60567        6.05023        0.09489
C         -2.37593        5.43669       -0.14785
F         -2.20942        4.19951       -0.52219
F         -4.77651        5.48830       -0.01469
C         -4.29133        8.38365        0.81900
C         -3.98040        9.67329        0.61443
C         -4.82824       10.77309        0.97578
N         -5.17763       11.10095        2.28835
C         -4.72372       10.45512        3.50520
C         -3.99826       11.42034        4.43576
C         -6.01155       12.23562        2.33147
O         -6.51583       12.79315        3.28454
C         -6.11997       12.61968        0.91666
C         -5.36944       11.66747        0.14346
C         -5.47080       12.06563       -1.27196
O         -4.96722       11.51122       -2.22853
N         -6.26741       13.23091       -1.21105
C         -6.60909       13.99367       -2.39706
C         -5.55911       15.04308       -2.72706
C         -6.63623       13.54142        0.10196
C         -7.39615       14.71219        0.45377
C         -8.18045       14.81572        1.53818
C         -8.90571       16.00469        1.79697
O         -9.36638       16.84674        0.80803
C        -10.07424       17.89178        1.36841
C        -10.03223       17.70327        2.73820
C         -9.32037       16.53449        3.00064
F         -9.08600       16.03048        4.17943
F        -10.58827       18.46684        3.63685
C        -10.69134       18.87570        0.55203
C        -11.23869       19.99504        1.04667
C        -11.90082       20.96558        0.22204
N        -13.22153       21.37014        0.42409
C        -14.12716       20.87544        1.44516
C        -14.63621       21.98833        2.35026
C        -13.63104       22.30644       -0.55222
O        -14.70596       22.84821       -0.71058
C        -12.41316       22.49191       -1.35754
C        -11.39533       21.63084       -0.82044
C        -10.17364       21.82220       -1.61749
O         -9.10979       21.25428       -1.48062
N        -10.55990       22.81619       -2.54083
C         -9.63925       23.33617       -3.53017
C         -9.64468       22.53055       -4.81849
C        -11.90044       23.17440       -2.38272
C        -12.55424       24.16254       -3.18765
C        -13.67746       23.93721       -3.88852
H          6.11164        3.51685        0.65819
H          5.59095        1.18645        1.59252
H          3.92540        0.78564        2.03790
H          5.69668        2.74335        3.59997
H          5.38546        1.05630        4.04793
H          4.06002        2.23389        4.04246
H          3.38948        7.84163       -1.94877
H          1.70160        7.59059       -1.54325
H          3.25617        6.16782       -3.77623
H          2.03018        7.43234       -3.98434
H          1.56499        5.83390       -3.37557
H          0.20541        4.30376       -0.71343
H          0.58131        7.14146        0.43999
H         -5.23950        8.09235        1.26180
H         -3.05196        9.94528        0.11359
H         -4.05236        9.62424        3.27396
H         -5.60377       10.04552        4.01355
H         -3.14091       11.87710        3.93126
H         -3.64414       10.89817        5.32874
H         -4.65248       12.23033        4.77243
H         -7.59114       14.46068       -2.26533
H         -6.69529       13.29886       -3.23984
H         -5.44129       15.76023       -1.90833
H         -5.84676       15.59746       -3.62595
H         -4.58309       14.58106       -2.90762
H         -7.30137       15.56747       -0.21272
H         -8.28853       14.00759        2.25348
H        -10.71235       18.67079       -0.51584
H        -11.22153       20.21383        2.11117
H        -13.63700       20.11180        2.05753
H        -14.97384       20.39856        0.93913
H        -13.80483       22.51576        2.82867
H        -15.28577       21.58050        3.13030
H        -15.21829       22.72552        1.78869
H         -8.62960       23.30320       -3.10362
H         -9.86782       24.38774       -3.72966
H         -9.30769       21.50377       -4.64145
H         -8.96889       22.98689       -5.54907
H        -10.64542       22.48465       -5.25891
H        -12.10531       25.15127       -3.21391
H        -14.16995       22.96915       -3.89758
H        -14.13443       24.73178       -4.46797
