93

C          0.35669       -0.02802       -4.10566
S         -0.43601       -1.47277       -3.65591
C         -0.84723       -1.87638       -5.30232
C         -0.31404       -0.92369       -6.16870
C          0.34167        0.14093       -5.46192
N          0.90573        1.20764       -6.07483
C          0.78579        1.13101       -7.42318
N          0.20403        0.16397       -8.18795
C         -0.36276       -0.91546       -7.57124
C         -0.91521       -1.94610       -8.38419
N         -1.36940       -2.80744       -9.01730
C         -1.59740       -3.07397       -5.51375
C         -1.04876       -4.29041       -5.76408
N          0.36503       -4.59032       -5.79931
O          0.69090       -5.74861       -5.50369
O          1.15628       -3.69519       -6.11953
C         -2.05312       -5.31018       -5.95490
C         -3.25812       -4.75548       -5.77365
C         -3.06725       -3.36218       -5.35769
C         -4.06465       -2.58390       -4.87416
C         -3.97331       -1.15440       -4.57998
C         -5.17719       -0.73767       -4.15492
C         -6.08054       -1.86895       -4.12333
N         -7.44408       -1.77695       -3.62356
O         -8.16835       -2.78083       -3.63296
O         -7.80903       -0.66506       -3.21649
C         -5.46319       -3.00681       -4.51417
C         -6.03766       -4.33461       -4.42423
C         -5.57991       -5.29603       -3.60542
C         -6.19441       -6.58864       -3.49241
N         -6.55984       -7.16548       -2.27658
C         -6.56318       -6.51322       -0.98391
C         -7.88845       -5.81895       -0.70618
C         -7.15243       -8.43161       -2.45852
O         -7.63584       -9.18729       -1.63960
C         -7.10819       -8.60513       -3.92201
C         -6.49554       -7.43505       -4.48043
C         -6.43120       -7.60295       -5.93774
O         -5.93391       -6.82508       -6.72543
N         -7.06779       -8.84611       -6.13972
C         -7.24501       -9.45117       -7.45318
C         -7.59565       -8.46343       -8.55891
C         -7.42716       -9.43497       -4.91734
C         -7.98712      -10.75507       -4.80855
C         -8.85002      -11.14154       -3.85293
C         -9.35327      -12.47539       -3.74882
S         -9.59964      -13.43538       -5.15461
C        -10.19625      -14.81199       -4.30395
C        -10.19703      -14.54018       -2.94212
C         -9.74919      -13.19079       -2.63331
C         -9.69681      -12.66551       -1.32650
C        -10.11488      -13.57453       -0.32202
C        -10.11458      -13.10484        1.03978
N        -10.12468      -12.71627        2.13692
C        -10.53699      -14.91282       -0.61962
C        -10.91764      -15.81120        0.43802
N        -11.22644      -16.57211        1.25686
C        -10.60561      -15.43767       -1.94038
C        -10.57003      -15.99297       -5.07601
S        -10.29776      -17.59453       -4.47872
C        -10.96118      -18.34789       -5.86392
C        -11.31491      -17.41873       -6.80887
C        -11.09554      -16.07470       -6.35966
N        -11.39145      -15.01430       -7.15857
C        -11.86849      -15.39568       -8.37244
N        -12.10050      -16.64540       -8.86782
C        -11.82898      -17.71386       -8.07092
C        -12.06265      -19.03562       -8.55038
N        -12.23866      -20.12923       -8.90055
H          0.80451        0.61992       -3.36539
H          1.21586        1.96459       -7.97649
H         -1.85834       -6.32206       -6.27805
H         -4.18748       -5.25697       -5.96270
H         -3.11933       -0.51084       -4.69697
H         -5.44516        0.26496       -3.85399
H         -6.93389       -4.50737       -5.02183
H         -4.69741       -5.12962       -2.99181
H         -5.73200       -5.80469       -0.92022
H         -6.40019       -7.27940       -0.21715
H         -8.12224       -5.08178       -1.48097
H         -7.85427       -5.30588        0.25946
H         -8.71144       -6.54153       -0.67708
H         -8.06051      -10.18041       -7.40195
H         -6.32360       -9.98690       -7.70540
H         -8.46311       -7.85554       -8.28213
H         -7.82881       -8.99780       -9.48496
H         -6.76272       -7.79005       -8.77990
H         -7.63866      -11.46515       -5.55461
H         -9.16930      -10.43622       -3.09095
H         -9.36893      -11.65680       -1.08465
H        -10.94863      -16.45026       -2.10810
H        -11.02312      -19.42848       -5.90340
H        -12.10081      -14.58066       -9.05614
