100

C          5.36146       -7.63212       -2.82944
O          6.27368       -6.66517       -2.59201
C          7.20613       -6.66109       -3.61228
C          6.84593       -7.66630       -4.51330
C          5.66263       -8.27707       -3.99695
C          4.91124       -9.35548       -4.54918
N          4.29876      -10.22882       -5.00091
C          7.53410       -8.08450       -5.75646
F          8.65330       -7.36449       -6.01706
F          7.90757       -9.38644       -5.69926
F          6.72332       -7.95144       -6.83527
C          8.29034       -5.73374       -3.62787
C          8.74640       -5.25039       -2.46148
C          9.79046       -4.26255       -2.29987
C         11.00224       -4.48434       -1.73142
N         11.44973       -5.75501       -1.20426
O         10.61205       -6.53355       -0.73129
O         12.67034       -5.96477       -1.23062
C         11.82443       -3.29798       -1.71802
C         11.14439       -2.30277       -2.30597
C          9.83727       -2.82145       -2.73103
C          8.88379       -2.10087       -3.36999
C          7.51034       -2.54785       -3.60212
C          6.86826       -1.59696       -4.29268
C          7.78066       -0.50460       -4.52387
N          7.40448        0.66496       -5.28999
O          8.27198        1.28321       -5.91432
O          6.19894        0.95373       -5.29132
C          8.99042       -0.72483       -3.96016
C         10.14241        0.14655       -4.00013
C         10.16903        1.38721       -3.49184
C         11.32948        2.22354       -3.53721
N         11.92284        2.77437       -2.40294
C         11.57613        2.49716       -1.02438
C         12.37255        1.33202       -0.45337
C         13.05717        3.54127       -2.73162
O         13.83925        4.10607       -1.99575
C         13.10511        3.43695       -4.20296
C         12.01470        2.60268       -4.62214
C         12.07881        2.46824       -6.08448
O         11.36874        1.79547       -6.80038
N         13.19784        3.25789       -6.41950
C         13.64061        3.39430       -7.79447
C         12.96536        4.55468       -8.50925
C         13.79660        3.80620       -5.28283
C         14.96185        4.63808       -5.33336
C         15.88303        4.70116       -4.35817
C         17.07124        5.55002       -4.42668
C         17.05322        6.76419       -5.11167
C         18.21177        7.54425       -5.16730
N         18.11824        8.77694       -5.91848
O         17.82083        8.67813       -7.11599
O         18.28979        9.83540       -5.30053
C         19.40234        7.16202       -4.53182
C         19.39565        5.95428       -3.82063
C         18.24245        5.16305       -3.76166
C         20.62873        7.96226       -4.54233
C         21.54908        7.89644       -5.51650
C         22.71899        8.71100       -5.44098
O         23.27424        9.10838       -4.24899
C         24.39328        9.87773       -4.45976
C         24.58102        9.97622       -5.83478
C         23.51485        9.24076       -6.44194
C         23.29030        9.08769       -7.84365
N         23.12881        8.97469       -8.98565
C         25.65656       10.66364       -6.58843
F         26.55973       11.29643       -5.80159
F         26.35305        9.78453       -7.35439
F         25.14895       11.59822       -7.43166
C         25.13805       10.43124       -3.37896
C         25.17393        9.82938       -2.18777
H          4.58057       -7.73420       -2.08671
H          8.69947       -5.40369       -4.57915
H          8.33258       -5.62550       -1.52355
H         12.79977       -3.23182       -1.25808
H         11.49327       -1.28766       -2.36600
H          7.03589       -3.44137       -3.23350
H          5.83240       -1.60955       -4.60038
H         11.03314       -0.27320       -4.46800
H          9.28730        1.82726       -3.03040
H         10.50229        2.30630       -0.94273
H         11.79640        3.39291       -0.43170
H         12.22473        0.42369       -1.04211
H         12.06073        1.12707        0.57507
H         13.44625        1.54799       -0.44610
H         13.39283        2.46794       -8.32593
H         14.73008        3.49875       -7.82852
H         11.87669        4.43647       -8.51212
H         13.30336        4.60734       -9.54949
H         13.19709        5.50924       -8.02659
H         15.07941        5.22642       -6.23904
H         15.79434        4.10004       -3.45646
H         16.14572        7.11788       -5.59631
H         20.29056        5.61440       -3.29580
H         18.26591        4.23109       -3.19511
H         20.73747        8.64577       -3.70175
H         21.42663        7.23570       -6.37114
H         25.67948       11.36669       -3.52407
H         24.66472        8.88678       -1.99558
H         25.72754       10.26464       -1.36017
