92

C         -3.76268        4.21347       -3.27257
C         -4.18254        2.93471       -3.15691
C         -5.57714        2.62444       -3.04093
N         -6.71074        2.40574       -2.95386
C         -3.29767        1.83081       -3.23561
N         -2.59195        0.90789       -3.29388
C         -4.66939        5.37134       -3.32807
C         -4.14688        6.30861       -4.22915
C         -4.73844        7.53446       -4.45172
C         -5.80937        7.88902       -3.61547
C         -6.22794        7.00693       -2.57257
C         -5.68092        5.72815       -2.46120
C         -7.15242        7.44203       -1.62075
C         -7.71508        8.71068       -1.71842
C         -7.37925        9.54221       -2.78439
C         -6.42989        9.13806       -3.72589
C         -2.75198        5.92411       -4.54675
O         -1.96642        6.46864       -5.29053
C         -2.46363        4.79479       -3.58280
C         -1.31520        4.91486       -2.88873
C         -0.85040        4.30870       -1.63451
C          0.49073        4.02839       -1.26346
N          0.87157        3.50344       -0.03447
C         -0.00704        3.25530        0.98007
C         -1.33706        3.58076        0.73332
C         -1.75060        4.10796       -0.55501
N         -3.06471        4.37049       -0.46222
O         -3.45940        4.00252        0.80511
N         -2.40381        3.50022        1.53524
C          1.68475        4.28485       -2.10338
S          3.23242        4.64968       -1.34364
C          4.11777        4.69140       -2.83505
C          3.21993        4.45582       -3.81369
C          1.90516        4.26087       -3.44296
N          1.03542        4.03055       -4.47314
C          1.86337        4.07628       -5.58484
C          1.37151        3.89775       -6.90272
N          0.95018        3.73456       -7.97304
C          3.20051        4.29266       -5.21866
C          5.51362        4.93200       -2.85203
C          6.09740        5.49808       -3.92093
C          7.49645        5.73606       -3.97442
S          8.16714        6.49500       -5.36053
C          9.77237        6.43651       -4.73606
C          9.77844        5.86001       -3.47944
C          8.48083        5.45555       -3.05669
C         10.92962        5.69029       -2.64486
N         11.83951        5.54002       -1.94410
C         10.80933        6.96787       -5.56157
C         12.05326        6.46984       -5.54035
C         13.08915        6.96999       -6.41146
C         14.15700        6.27725       -6.83257
C         15.28666        6.71960       -7.67553
C         15.27837        7.70653       -8.60920
C         16.39483        7.99019       -9.43906
N         17.30834        8.23268      -10.11696
C         14.12270        8.50257       -8.88098
N         13.18751        9.15032       -9.09864
C         16.38595        5.73507       -7.44301
C         15.86317        4.63813       -6.74508
C         14.46103        4.87098       -6.39281
O         13.73973        4.06141       -5.84787
C         16.60332        3.52322       -6.38644
C         17.95843        3.50340       -6.71965
C         18.53361        4.61738       -7.39363
C         17.73904        5.72951       -7.74563
C         19.90186        4.59138       -7.69711
C         20.68890        3.49026       -7.35532
C         20.12055        2.39962       -6.70321
C         18.76328        2.40569       -6.38403
H         -4.30772        8.23474       -5.16148
H         -5.97017        5.07077       -1.64469
H         -7.42374        6.80649       -0.77955
H         -8.41893        9.04678       -0.96169
H         -7.84356       10.52062       -2.87101
H         -6.16604        9.81692       -4.53342
H         -0.61705        5.67991       -3.24464
H          0.37589        2.85884        1.91009
H          0.03946        3.88331       -4.45524
H          4.03817        4.32057       -5.90403
H          6.08269        4.64996       -1.97161
H          5.50520        5.80663       -4.77881
H          8.29706        4.97985       -2.09985
H         10.55091        7.74536       -6.27964
H         12.31636        5.64357       -4.88606
H         12.94795        8.00881       -6.69517
H         16.13159        2.70743       -5.84403
H         18.21852        6.57116       -8.23493
H         20.37086        5.43061       -8.20712
H         21.74781        3.48515       -7.60061
H         20.73543        1.54238       -6.44027
H         18.33990        1.54545       -5.86932
