126

C         13.91925       -0.47377        1.47569
C         13.47810        0.17097        2.61698
S         12.19194       -0.67255        3.39627
C         12.23193       -1.89038        2.24129
C         13.17194       -1.65162        1.25725
C         13.11130       -2.67277        0.22553
O         13.81163       -2.79237       -0.76132
C         11.87473       -3.47546        0.61566
C         11.51303       -3.10055        1.99947
C         10.85389       -3.84086        2.91602
C         10.58580       -3.38682        4.23288
N         10.34844       -3.03482        5.31537
C         10.45162       -5.18061        2.63524
N         10.15379       -6.27980        2.41231
C         11.18826       -4.04163       -0.38994
C          9.78727       -4.31945       -0.39370
C          9.12765       -5.32662       -1.06090
C          7.70137       -5.11753       -1.23527
C          6.70433       -5.80891       -1.98541
C          6.85052       -7.24329       -2.37224
C          5.85945       -8.21011       -2.52735
C          6.36308       -9.52774       -2.74956
C          7.73567       -9.56508       -2.70592
S          8.37304       -7.98894       -2.65503
C          8.66754      -10.72807       -2.73231
Cl         5.33109      -10.87426       -2.96757
C          5.55672       -5.08262       -2.38940
C          5.20452       -3.88358       -1.75713
C          5.98197       -3.47009       -0.64472
C          7.30379       -3.95988       -0.54612
S          8.63568       -3.29951        0.32442
C          5.44018       -2.46749        0.31872
C          6.05694       -1.49343        1.09224
C          5.17337       -0.78674        1.95880
C          3.86681       -1.17903        1.80044
S          3.75662       -2.51629        0.74553
C          2.63282       -0.60684        2.41261
Cl         5.73740        0.42840        3.02448
C          4.09508       -3.24788       -2.43619
C          3.66194       -3.91784       -3.55766
S          4.43975       -5.42910       -3.66883
C          2.68735       -3.48462       -4.53541
C          1.84060       -4.28881       -5.29600
C          0.95247       -3.52557       -6.09301
C          1.26705       -2.19429       -6.01593
S          2.47794       -1.80858       -4.94321
C          0.43197       -1.49619       -6.90489
C         -0.43354       -2.37184       -7.53345
C         -0.20853       -3.71537       -7.00556
C         -0.92931       -4.86103       -7.11536
C         -0.52080       -5.88982       -6.07367
N         -0.18191       -6.74328       -5.20949
C         -2.21906       -5.04348       -7.89873
N         -3.28901       -5.19484       -8.54860
C         -1.25083       -1.68849       -8.46127
C         -0.93338       -0.32191       -8.49758
S          0.30196        0.08890       -7.35012
C         -1.46195        0.71345       -9.35173
C         -0.83774        1.87225       -9.75984
C         -1.53810        2.61158      -10.78267
C         -1.20522        3.77273      -11.53974
C         -0.32065        4.85035      -11.01605
C         -0.38149        6.21349      -11.29462
C          0.48844        7.01074      -10.49684
C          1.16750        6.25669       -9.57102
S          0.89811        4.59362       -9.83232
C          2.04964        6.69127       -8.45065
Cl         0.56565        8.71154      -10.66392
C         -1.78456        3.90544      -12.81948
C         -2.96482        3.22594      -13.12273
C         -3.58427        2.46793      -12.09825
C         -2.76702        1.98684      -11.05623
S         -3.02340        0.65968       -9.97433
C         -5.03478        2.16194      -12.20932
C         -6.05258        2.99661      -12.66162
C         -7.34543        2.38842      -12.63443
C         -7.30546        1.10529      -12.14113
S         -5.71867        0.66318      -11.72693
C         -8.39690        0.10010      -11.99714
Cl        -8.74567        3.19047      -13.20382
C         -3.28442        3.35968      -14.51839
C         -2.35049        4.04514      -15.26733
S         -1.23794        4.80234      -14.19822
C         -2.13579        4.15392      -16.67880
C         -3.07030        4.13457      -17.64791
C         -2.87231        4.22544      -19.14942
C         -1.75351        4.10690      -19.90241
C         -1.74697        4.18263      -21.32783
N         -1.70054        4.23778      -22.48658
C         -0.47247        3.85984      -19.34127
N          0.58014        3.65979      -18.88258
C         -4.20100        4.37993      -19.67690
C         -5.16490        4.31307      -18.70240
C         -6.48480        4.43782      -19.18049
C         -6.47725        4.61867      -20.54765
S         -4.88205        4.62786      -21.19883
C         -4.58878        4.13356      -17.39688
O         -5.22874        4.03500      -16.37134
H         14.70805       -0.09921        0.83423
H         13.83555        1.10296        3.03497
H         11.68307       -4.15818       -1.35604
H          9.70404       -6.09724       -1.54935
H          4.79970       -8.00507       -2.44125
H          8.16672      -11.65067       -2.42276
H          9.50497      -10.57531       -2.04044
H          9.07361      -10.87367       -3.73730
H          7.11171       -1.26761        1.06866
H          2.83612       -0.18068        3.39998
H          1.84796       -1.35986        2.53461
H          2.24176        0.19357        1.77417
H          3.69975       -2.27977       -2.15175
H          1.87313       -5.36637       -5.20954
H         -1.99963       -2.14397       -9.09963
H          0.16276        2.10390       -9.42858
H         -1.06796        6.65017      -12.00882
H          1.96292        7.76639       -8.26476
H          3.09749        6.46544       -8.66802
H          1.76940        6.18484       -7.51945
H         -5.88030        4.00535      -13.02041
H         -9.33053        0.56311      -11.66496
H         -8.14390       -0.68320      -11.27283
H         -8.57181       -0.38380      -12.96362
H         -4.09974        2.80100      -14.95444
H         -1.08541        4.23718      -16.94246
H         -7.37729        4.40413      -18.56663
H         -7.32903        4.74933      -21.19998
