121

C         -1.73894       -2.69733        1.81825
C         -1.20109       -2.12867        2.96604
C         -1.05363       -0.73546        2.80108
C         -1.47861       -0.31731        1.55623
S         -2.04876       -1.53196        0.57319
C         -1.30613        1.08106        1.46050
C         -0.77527        1.54195        2.64472
C         -0.57957        0.42044        3.56134
C         -0.07513        0.44686        4.81016
C          0.35484        1.65841        5.41711
N          0.70719        2.64875        5.90991
C          0.05961       -0.73506        5.58739
N          0.16956       -1.70027        6.22323
C         -0.58370        2.93629        2.62229
C         -0.97432        3.48108        1.39977
S         -1.57310        2.25719        0.31708
C         -0.92645        4.87257        1.02072
C         -0.74339        5.41381       -0.21645
C         -0.77955        6.86513       -0.31928
C         -0.68268        7.76010       -1.43625
C         -0.53521        7.22379       -2.85801
C         -0.40944        7.85981       -4.09245
C         -0.25904        6.99288       -5.22070
C         -0.22324        5.67661       -4.85566
S         -0.54424        5.53373       -3.21541
C          0.00992        4.44374       -5.65546
Cl        -0.12515        7.58803       -6.81473
C         -0.73939        9.16861       -1.18848
C         -0.86019        9.71070        0.10676
C         -0.96352        8.80926        1.21078
C         -0.93344        7.40389        0.96978
S         -1.05379        6.10927        2.13240
C         -1.10132        9.34992        2.61741
C         -0.63126       10.52187        3.20270
C         -0.97513       10.67344        4.58691
C         -1.69168        9.60776        5.06840
S         -2.00286        8.50024        3.83159
C         -2.22812        9.33285        6.43240
Cl        -0.50744       12.04295        5.49801
C         -0.87708       11.17084        0.03899
C         -0.74433       11.71245       -1.22080
S         -0.71361       10.45651       -2.33781
C         -0.69456       13.12007       -1.64570
C         -1.33457       14.14849       -0.93130
C         -1.28174       15.50915       -1.29918
F         -1.97285       16.34204       -0.50313
C         -0.58304       16.03123       -2.41056
C          0.08038       15.03552       -3.19859
C          0.02529       13.55396       -2.80280
N          0.72756       12.77942       -3.64844
S          1.35911       13.74709       -4.81799
N          0.80932       15.22449       -4.31441
C         -0.52968       17.46590       -2.72214
C         -0.40900       18.13350       -3.91348
C         -0.42414       19.59200       -3.87506
C         -0.39150       20.58972       -4.90075
C         -0.39494       20.20141       -6.36108
C         -0.38734       20.96979       -7.51926
C         -0.34171       20.24269       -8.73868
C         -0.35397       18.89195       -8.52568
S         -0.36046       18.56340       -6.88548
C         -0.30232       17.76528       -9.48351
Cl        -0.24757       21.01397      -10.25408
C         -0.32894       21.96678       -4.53094
C         -0.23733       22.37978       -3.18915
C         -0.33153       21.38661       -2.16681
C         -0.45003       20.01359       -2.53750
S         -0.63349       18.62432       -1.51428
C         -0.31373       21.80173       -0.71293
C          0.28916       22.87449       -0.05931
C          0.01592       22.94321        1.34682
C         -0.80172       21.92539        1.76748
S         -1.18834       20.90583        0.48244
C         -1.39272       21.64630        3.10456
Cl         0.63042       24.19291        2.33872
C         -0.03862       23.82071       -3.13645
C         -0.12673       24.47958       -4.33774
S         -0.35224       23.36424       -5.55912
C         -0.02223       25.89783       -4.58282
C          0.70831       26.81196       -3.82593
C          0.57591       28.11788       -4.33887
C         -0.24292       28.15194       -5.44292
S         -0.86289       26.68081       -5.89406
C         -0.33148       29.48033       -5.90507
C          0.43644       30.28743       -5.08928
C          1.05556       29.46729       -4.04862
C          1.87653       29.86119       -3.05484
C          2.26539       31.21320       -2.89818
N          2.58256       32.32789       -2.77580
C          2.40022       28.92423       -2.10141
N          2.81415       28.17702       -1.34539
C          0.38996       31.63496       -5.49982
C         -0.42031       31.77438       -6.62039
S         -1.10502       30.27241       -7.14551
H         -1.96868       -3.74006        1.64164
H         -0.94842       -2.71696        3.84002
H         -0.18176        3.54244        3.42495
H         -0.58743        4.72607       -1.02320
H         -0.41375        8.92361       -4.24413
H         -0.19689        4.61104       -6.71422
H         -0.63035        3.61914       -5.32044
H          1.05223        4.11943       -5.55611
H         -0.04275       11.26521        2.68496
H         -1.64661        9.84916        7.20068
H         -2.19472        8.26192        6.66766
H         -3.27000        9.66227        6.50706
H         -0.96966       11.81725        0.89687
H         -1.91960       13.91937       -0.04231
H         -0.33073       17.53150       -4.79361
H         -0.38158       22.04188       -7.55341
H         -0.79735       18.02579      -10.42109
H         -0.79560       16.86847       -9.08909
H          0.74216       17.51536       -9.69127
H          0.90716       23.61651       -0.54060
H         -0.64062       21.72554        3.89346
H         -1.82457       20.63911        3.16203
H         -2.19850       22.35960        3.30531
H          0.13610       24.38404       -2.23753
H          1.29894       26.51725       -2.96822
H          0.89549       32.47689       -5.04292
H         -0.64958       32.68092       -7.16453
