105

C          4.43135        6.46455       -6.37513
C          5.27360        6.46121       -5.29515
C          5.09797        5.33920       -4.39495
C          5.70666        5.01091       -3.14568
C          6.78518        5.86416       -2.56043
C          7.92565        5.49881       -1.84850
C          8.75582        6.59805       -1.48253
C          8.27338        7.78858       -1.96998
S          6.71423        7.58447       -2.62997
C          8.88393        9.14669       -1.92518
Cl        10.19209        6.39586       -0.57430
C          5.32404        3.83512       -2.46410
C          4.45166        2.91016       -3.05240
C          3.85530        3.21647       -4.30462
C          4.14825        4.44865       -4.93212
S          3.43336        5.10986       -6.37533
C          2.91485        2.25248       -4.96662
C          2.72908        1.95983       -6.31521
C          1.66466        1.04331       -6.57231
C          1.10764        0.56084       -5.41234
S          1.75915        1.35402       -4.04975
C          0.04202       -0.46267       -5.20998
Cl         1.18410        0.63466       -8.16433
C          4.39520        1.73398       -2.23794
C          5.14777        1.76428       -1.08346
S          5.76629        3.31170       -0.85864
C          5.39155        0.61672       -0.26084
C          6.40419        0.30675        0.60250
S          7.66745        1.31010        1.40591
C          8.20589       -0.18720        2.13798
C          9.26467       -0.10518        3.19251
C          7.57307       -1.35044        1.66862
C          6.46269       -1.08639        0.81205
C          5.53620       -1.85818        0.16312
S          4.36239       -0.73354       -0.39175
C          5.35082       -3.30501       -0.08267
C          4.06930       -3.90562       -0.16584
C          3.93738       -5.29629       -0.21683
N          2.63303       -5.77627       -0.07674
C          1.77742       -4.80147       -0.21468
S          2.45034       -3.25466       -0.26325
C          5.08917       -6.09562       -0.38610
C          6.33990       -5.47550       -0.53954
C          6.50101       -4.09841       -0.33523
N          7.82458       -3.66125       -0.42872
C          8.61825       -4.65384       -0.75337
S          7.86910       -6.16105       -0.99273
C          4.90794       -7.55906       -0.42196
C          5.58567       -8.41492        0.46887
C          5.40236       -9.79959        0.41761
N          6.22456      -10.53513        1.27057
C          6.94775       -9.72583        2.00595
S          6.68113       -8.06117        1.76979
C          4.41183      -10.31755       -0.44183
C          3.58039       -9.45047       -1.15728
C          3.91271       -8.09845       -1.27472
N          3.18284       -7.41442       -2.24781
C          2.14926       -8.12632       -2.61710
S          2.04132       -9.67845       -1.92997
C          4.24661      -11.78011       -0.46307
C          3.86426      -12.62469       -1.44421
C          3.47819      -14.00294       -1.01402
O          3.81714      -14.60771       -0.01582
C          2.52781      -14.46961       -2.03225
C          1.79506      -15.63810       -1.96829
C          0.89719      -15.89944       -3.00394
C          0.72551      -14.94588       -4.05146
C         -0.17998      -15.22593       -5.08200
C         -0.87548      -16.43018       -5.09054
C         -0.70834      -17.36586       -4.07848
C          0.16880      -17.09697       -3.02917
F         -1.71274      -16.69643       -6.10088
C          1.47380      -13.75297       -4.06142
C          2.41170      -13.53431       -3.06792
C          3.43222      -12.46897       -2.83328
C          3.97841      -11.68695       -3.80552
C          5.17065      -10.93981       -3.55916
N          6.14035      -10.33930       -3.39412
C          3.42133      -11.54060       -5.10764
N          2.93888      -11.39046       -6.15221
H          4.35746        7.21278       -7.15204
H          5.96672        7.27641       -5.15346
H          8.17958        4.47807       -1.58986
H          9.97385        9.09321       -2.02094
H          8.64147        9.63824       -0.97910
H          8.52309        9.77715       -2.74579
H          3.30124        2.41354       -7.11465
H         -0.48120       -0.70176       -6.14033
H         -0.70599       -0.10479       -4.49484
H          0.47234       -1.39189       -4.81895
H          3.87203        0.83684       -2.53512
H          9.65790        0.90988        3.31596
H         10.10202       -0.76733        2.95567
H          8.84010       -0.41201        4.15496
H          7.87068       -2.33914        1.99657
H          0.71047       -4.96773       -0.27440
H          9.68671       -4.53208       -0.87371
H          7.66036      -10.08774        2.73649
H          1.40297       -7.74878       -3.30369
H          4.46685      -12.22931        0.51315
H          1.93439      -16.32215       -1.13468
H         -0.34076      -14.52856       -5.89979
H         -1.25738      -18.30127       -4.11519
H          0.29212      -17.83748       -2.24095
H          1.30241      -13.03635       -4.85807
