146

C         -1.38611       -1.46110       -0.70470
O         -1.62310       -0.36992       -0.19422
N         -2.19114       -2.07858       -1.66020
C         -3.47895       -1.48196       -1.95631
C         -1.72650       -3.06063       -2.52324
O         -2.36483       -3.37535       -3.56609
N         -0.56579       -3.70326       -2.17100
C         -0.15692       -4.87837       -2.91246
C         -0.15619       -3.62462       -0.85895
O          0.07331       -4.58153       -0.13472
C         -0.15863       -2.22976       -0.39382
C          0.89448       -1.58830        0.15028
C          2.19748       -2.14550        0.30207
C          2.75951       -2.83425        1.35294
C          4.16073       -3.20738        1.18296
C          5.04763       -4.05213        1.92927
C          4.52093       -4.91472        3.06215
C          5.10343       -5.37154        4.24787
C          4.21629       -6.11909        5.09826
C          2.94729       -6.19901        4.57629
S          2.92318       -5.59065        2.98102
C          1.69589       -6.75007        5.18244
Cl         4.71885       -6.77425        6.60201
C          6.42204       -4.08406        1.55577
C          6.96450       -3.18741        0.61286
C          6.07347       -2.40159       -0.16602
C          4.67829       -2.51743        0.07040
S          3.35726       -1.96366       -0.91405
C          6.60130       -1.50165       -1.25708
C          6.02122       -1.06559       -2.44363
C          6.80772       -0.12778       -3.18003
C          7.96718        0.20099       -2.52845
S          8.17765       -0.79015       -1.18508
C          8.97618        1.25096       -2.83825
Cl         6.29041        0.53606       -4.66486
C          8.41088       -3.25677        0.64171
C          8.91985       -4.28259        1.38723
S          7.65617       -5.19925        2.04757
C         10.29523       -4.62313        1.58003
C         10.86880       -5.20050        2.67406
C         12.29127       -5.45058        2.60716
C         13.19136       -6.05327        3.53504
C         12.66866       -6.53791        4.87632
C         11.39358       -6.54507        5.43090
C         11.28924       -7.07123        6.74713
C         12.48900       -7.52656        7.20716
S         13.70030       -7.18237        6.10600
C         12.83105       -8.20383        8.48030
Cl         9.81105       -7.11099        7.59579
C         14.56386       -6.17002        3.17329
C         15.08136       -5.65027        1.97306
C         14.18097       -5.05067        1.03430
C         12.79197       -4.97933        1.37646
S         11.47122       -4.33782        0.43859
C         14.71977       -4.51082       -0.28883
C         16.00176       -4.48706       -0.83482
C         16.12824       -3.87524       -2.11600
C         14.93164       -3.40315       -2.56935
S         13.71041       -3.75170       -1.47448
C         14.60786       -2.66824       -3.81545
Cl        17.62951       -3.76026       -2.92221
C         16.52212       -5.83322        1.96929
C         17.07109       -6.46884        3.04982
S         15.83502       -6.96962        4.03745
C         18.46000       -6.74078        3.31920
C         19.54719       -6.39235        2.55825
C         20.83210       -6.79771        3.10196
C         22.14739       -6.58711        2.60872
C         22.34523       -5.73786        1.37279
C         21.67033       -4.59992        0.93297
C         22.19018       -4.04138       -0.27916
C         23.30279       -4.71215       -0.72714
S         23.52153       -6.14928        0.16318
C         24.21743       -4.37264       -1.86062
Cl        21.49426       -2.67022       -1.03286
C         23.25325       -7.13458        3.31519
C         23.09413       -7.90896        4.48831
C         21.76727       -8.11456        5.00821
C         20.66521       -7.53362        4.29300
S         18.97634       -7.59222        4.67761
C         21.54355       -8.93087        6.29335
C         22.24322      -10.00033        6.86085
C         21.70588      -10.49164        8.10583
C         20.58671       -9.80271        8.50096
S         20.23648       -8.56573        7.38959
C         19.72629       -9.95811        9.71618
Cl        22.43015      -11.78646        8.96628
C         24.40463       -8.32406        4.96164
C         25.47527       -7.91314        4.19824
S         24.94533       -6.92988        2.94270
C         26.86116       -8.12377        4.43149
C         27.54560       -9.19460        3.98614
C         26.97424      -10.23353        3.11007
O         26.19773       -9.98348        2.19555
N         27.42706      -11.50045        3.40979
C         28.71684      -11.74657        3.85430
O         29.17695      -12.88789        3.91007
N         29.46675      -10.63167        4.21506
C         28.92663       -9.38404        4.48080
O         29.51261       -8.50714        5.11174
C         30.84383      -10.85457        4.61832
C         26.67500      -12.61368        2.86445
H         -3.87798       -0.94966       -1.08969
H         -4.18930       -2.26450       -2.24673
H         -3.36120       -0.78587       -2.79291
H         -0.27452       -4.71319       -3.98730
H         -0.76630       -5.73240       -2.60333
H          0.89406       -5.09559       -2.69545
H          0.78714       -0.54000        0.42823
H          2.14967       -3.08154        2.20966
H          6.12393       -5.17477        4.54844
H          1.83923       -7.77972        5.52594
H          0.86278       -6.75083        4.47028
H          1.38666       -6.13864        6.03894
H          5.04762       -1.37289       -2.79043
H          9.42716        1.08225       -3.81874
H          9.78271        1.29302       -2.09625
H          8.49221        2.23335       -2.84042
H          9.07813       -2.59466        0.11647
H         10.21445       -5.41524        3.48619
H         10.50069       -6.19166        4.97151
H         12.49374       -7.60348        9.32811
H         13.90974       -8.36083        8.59172
H         12.34881       -9.18441        8.52349
H         16.88932       -4.87587       -0.38820
H         15.16490       -1.72763       -3.84196
H         13.54143       -2.42453       -3.88555
H         14.87231       -3.26892       -4.68955
H         17.19727       -5.50925        1.21216
H         19.42825       -5.86182        1.62464
H         20.83460       -4.15298        1.45493
H         23.66936       -4.36174       -2.80773
H         25.04520       -5.08363       -1.95949
H         24.66140       -3.38044       -1.71274
H         23.12182      -10.45638        6.42961
H         19.85235      -10.93657       10.19007
H         18.66297       -9.85457        9.46813
H         19.97533       -9.18989       10.45744
H         24.59378       -8.89593        5.85703
H         27.33733       -7.40821        5.09891
H         31.29069      -11.67405        4.04739
H         30.85874      -11.10915        5.68261
H         31.44069       -9.95085        4.45982
H         25.61148      -12.36104        2.79788
H         26.78901      -13.49772        3.49867
H         27.05414      -12.83639        1.86267
