108

C         -8.11993       -3.99030       -4.56996
C         -9.03052       -4.65055       -3.81942
C         -9.53701       -5.92940       -4.18389
N         -9.94432       -6.97117       -4.49360
C         -9.46629       -4.14307       -2.55968
N         -9.81208       -3.72784       -1.53298
C         -7.44393       -4.48687       -5.79947
C         -6.21049       -3.83517       -5.90956
C         -5.32826       -4.02932       -6.96313
C         -5.74793       -4.87392       -8.01761
C         -7.00184       -5.50194       -7.92781
C         -7.86289       -5.33800       -6.81423
S         -7.33031       -6.43927       -9.34283
C         -5.86384       -6.00071      -10.05259
C         -5.09816       -5.18719       -9.26138
Br        -5.34365       -6.56296      -11.76211
C         -6.07171       -2.81904       -4.84562
O         -5.05940       -2.22385       -4.54329
C         -7.43176       -2.73449       -4.22731
C         -7.96502       -1.58452       -3.78657
N         -7.40698       -0.30508       -3.72788
C         -7.51982        0.61813       -4.75885
C         -8.28216        0.41055       -5.89506
S         -8.16123        1.68125       -7.03244
C         -7.10807        2.56113       -6.01793
C         -6.87342        1.91942       -4.81739
N         -6.15469        2.49301       -3.78660
C         -6.88727        2.56474       -2.50350
C         -7.02293        1.21103       -1.84304
O         -7.57511        1.09975       -0.74274
C         -6.50326        0.00562       -2.60094
C         -4.91274        3.10668       -3.97373
C         -4.09115        3.69039       -3.08541
C         -2.80295        4.28598       -3.39643
C         -2.55618        5.30732       -4.23314
C         -1.25703        5.90621       -4.44019
C         -1.26995        6.96897       -5.26094
C         -2.58756        7.29717       -5.77356
S         -3.77149        6.13178       -5.16478
C         -2.92284        8.32723       -6.57479
C         -2.06211        9.36074       -7.11597
C         -2.71123       10.28433       -7.84640
C         -4.14203       10.05964       -7.94771
S         -4.57179        8.60225       -7.10292
C         -5.00955       10.86821       -8.58888
N         -6.41183       10.85077       -8.77524
C         -7.06763       11.81995       -9.51222
C         -6.60352       12.29606      -10.72393
S         -7.64464       13.45520      -11.42587
C         -8.74180       13.33262      -10.12602
C         -8.31380       12.45842       -9.14727
N         -9.01943       12.20351       -7.98881
C         -9.55553       10.82818       -7.85930
C         -8.70111        9.77672       -8.52271
O         -9.20181        8.89830       -9.23247
C         -7.23548        9.77845       -8.16198
C         -9.58218       13.19484       -7.17353
C         -9.47654       14.52919       -7.24771
C        -10.14288       15.45534       -6.35725
C         -9.75369       16.71880       -6.13379
C         -8.57791       17.47910       -6.57401
C         -7.29469       17.03139       -6.57058
C         -6.19036       17.84979       -6.94879
N         -5.29660       18.50801       -7.27125
C         -6.93689       15.77659       -6.00080
N         -6.61989       14.80249       -5.45702
C         -8.95556       18.91955       -6.52649
C        -10.10639       19.02535       -5.73637
C        -10.66823       17.68879       -5.45209
O        -11.68029       17.44806       -4.82902
C        -10.59729       20.23322       -5.25902
C         -9.87556       21.40592       -5.58398
C         -8.78270       21.30770       -6.46060
C         -8.33026       20.07239       -6.98308
S         -8.07320       22.85656       -6.74962
C         -9.11610       23.60644       -5.65600
C        -10.04881       22.75687       -5.12366
Br        -8.99891       25.42216       -5.21169
H         -4.38572       -3.49069       -7.00581
H         -8.83437       -5.82097       -6.81609
H         -4.12876       -4.80074       -9.55267
H         -9.01852       -1.52482       -3.51746
H         -8.90901       -0.43504       -6.13452
H         -6.75456        3.53489       -6.33009
H         -7.89370        2.96788       -2.67803
H         -6.40082        3.23284       -1.78794
H         -6.46485       -0.82972       -1.89002
H         -5.47053        0.16845       -2.92971
H         -4.58914        3.05003       -5.01418
H         -4.33953        3.71266       -2.02817
H         -1.98101        3.88079       -2.80731
H         -0.36358        5.53256       -3.95883
H         -0.38357        7.53500       -5.50901
H         -0.99617        9.39088       -6.93802
H         -2.22371       11.12983       -8.31363
H         -4.58050       11.75792       -9.05024
H         -5.71397       11.99400      -11.25779
H         -9.65692       13.90722      -10.14008
H        -10.54997       10.79830       -8.32133
H         -9.66183       10.54634       -6.80457
H         -6.86716        8.80597       -8.50837
H         -7.16833        9.82140       -7.06858
H        -10.14853       12.76352       -6.34778
H         -8.88596       14.96785       -8.04550
H        -11.07508       15.10333       -5.91264
H        -11.46272       20.25986       -4.60256
H         -7.47489       20.06054       -7.65007
H        -10.80362       23.06143       -4.40867
