101

C         -5.91166       -3.68767       -1.72047
C         -6.51826       -4.87398       -1.47373
C         -5.96593       -6.12481       -1.87291
N         -5.52456       -7.14477       -2.20556
C         -7.74527       -4.97389       -0.75404
N         -8.75309       -5.05091       -0.18524
C         -4.57876       -3.49193       -2.37535
C         -4.14224       -2.19352       -2.10438
C         -2.95411       -1.65096       -2.58195
C         -2.14167       -2.46468       -3.40080
C         -2.56620       -3.77262       -3.68004
C         -3.78572       -4.30406       -3.18134
S         -1.42473       -4.59135       -4.68902
C         -0.41800       -3.23839       -4.76011
C         -0.89396       -2.16907       -4.05046
Br         1.19056       -3.20454       -5.71998
C         -5.13584       -1.46405       -1.30641
O         -4.94494       -0.38948       -0.77716
C         -6.35554       -2.34221       -1.27118
C         -7.59836       -1.87598       -1.04445
C         -7.89070       -0.49916       -0.80886
S         -7.98849        0.57620       -2.15289
C         -8.34721        1.91010       -1.15560
C         -8.43711        1.57646        0.18093
C         -8.72944        2.55926        1.26854
C         -8.21178        0.16659        0.36586
C         -8.32451       -0.49053        1.63114
C         -7.29594       -0.70522        2.46429
C         -7.48678       -1.31562        3.75774
C         -6.75543       -2.35653        4.18571
C         -6.91272       -2.94038        5.48606
S         -8.47875       -2.95337        6.22371
C         -7.99636       -3.88486        7.57598
C         -6.64777       -4.18888        7.49777
C         -6.00012       -3.58361        6.31715
C         -4.60493       -3.72207        6.08367
C         -3.77001       -3.04387        5.07801
O         -2.83652       -3.59546        4.52029
O         -4.03386       -1.72966        4.93478
C         -3.93927       -4.56661        7.00804
C         -4.57354       -5.17270        8.12145
C         -5.92769       -4.97645        8.42950
O         -6.38235       -5.54676        9.59161
C         -9.01620       -4.20370        8.52360
C         -9.64119       -5.39026        8.53508
C        -10.54140       -5.83638        9.57503
C        -10.64531       -7.17490        9.62851
C         -9.82675       -7.84272        8.62848
S         -9.34965       -6.67810        7.39807
C         -9.32454       -9.08845        8.69220
C         -9.50790      -10.04410        9.76693
C         -8.61603      -11.04713        9.74746
C         -7.66153      -10.94140        8.66492
S         -8.14357       -9.70309        7.54015
C         -6.53099      -11.65727        8.57136
C         -5.47019      -11.42218        7.61008
C         -4.42970      -12.21948        7.34154
C         -4.04040      -13.57050        7.76276
C         -4.84833      -14.65450        7.85247
C         -4.35345      -15.95724        8.14396
N         -3.95101      -17.01362        8.39641
C         -6.23856      -14.60252        7.52489
N         -7.36493      -14.60029        7.25154
C         -2.55141      -13.62109        7.69621
C         -2.12447      -12.55293        6.89681
C         -3.23749      -11.63250        6.62261
O         -3.16469      -10.57271        6.04267
C         -0.80979      -12.37524        6.48902
C          0.15032      -13.30146        6.95493
C         -0.25841      -14.31004        7.84344
C         -1.60979      -14.48703        8.22993
S          1.08921      -15.25790        8.36640
C          2.15807      -14.39612        7.38525
C          1.55541      -13.39681        6.66986
Br         3.99186      -14.76672        7.29506
H         -2.68057       -0.62580       -2.34755
H         -4.06109       -5.31359       -3.46460
H         -0.38841       -1.21280       -3.98600
H         -8.47232       -2.51253       -1.10655
H         -8.48112        2.88687       -1.59974
H         -8.84060        3.57293        0.86868
H         -7.91227        2.57792        1.99740
H         -9.65692        2.29816        1.78754
H         -9.32326       -0.82107        1.91104
H         -6.28801       -0.39284        2.19393
H         -8.26885       -0.86888        4.36883
H         -6.00053       -2.77617        3.52254
H         -4.76209       -1.38871        5.48814
H         -2.86943       -4.74723        6.87686
H         -3.97392       -5.79979        8.78203
H         -7.28382       -5.24038        9.76005
H         -9.22953       -3.46288        9.28865
H        -11.01964       -5.16255       10.27213
H        -11.22000       -7.70434       10.37480
H        -10.25130       -9.92726       10.54220
H         -8.56465      -11.82222       10.49906
H         -6.34173      -12.40607        9.33603
H         -5.46232      -10.43066        7.15178
H         -0.53693      -11.54689        5.84062
H         -1.86544      -15.28382        8.92050
H          2.07980      -12.74495        5.98121
