108

C        -11.14254       -8.07808        8.81013
C         -9.79781       -7.89860        8.81896
C         -8.85959       -8.97519        8.87120
N         -8.08776       -9.83672        8.90962
C         -9.17998       -6.61446        8.80061
N         -8.65658       -5.58740        8.80422
C        -11.85413       -9.39584        8.92574
C        -13.23020       -9.16509        8.91421
C        -14.19820      -10.15450        9.06141
C        -13.75750      -11.47422        9.28773
C        -12.37872      -11.72597        9.29813
C        -11.41303      -10.70585        9.09361
S        -12.05454      -13.39369        9.61574
C        -13.69619      -13.74491        9.78644
C        -14.50951      -12.66801        9.55672
Br       -14.33751      -15.43982       10.25900
C        -13.52734       -7.73624        8.79962
O        -14.64705       -7.26802        8.80894
C        -12.20146       -7.03191        8.71931
C        -12.13605       -5.70239        8.53264
C        -13.27008       -4.79943        8.37908
C        -13.48521       -4.03720        7.29577
C        -14.61157       -3.15732        7.08927
C        -14.63887       -2.58257        5.87553
C        -13.53506       -2.97227        5.01967
S        -12.43810       -4.03917        5.90772
C        -13.33464       -2.64511        3.72929
C        -14.13979       -1.80900        2.86132
C        -13.74326       -1.81312        1.57462
C        -12.60205       -2.67081        1.31492
S        -11.98003       -3.28027        2.82862
C        -12.11907       -2.99908        0.09758
C        -11.06377       -3.93759       -0.13329
N        -10.08385       -4.10971        0.81932
C         -9.25548       -5.15306        0.51364
C         -8.27648       -5.50011        1.47965
C         -7.05911       -4.93628        1.42532
C         -6.03183       -5.28021        2.33656
N         -4.73346       -5.17078        1.89089
C         -3.86271       -5.54293        2.88100
C         -4.60574       -5.89623        3.98370
C         -5.97275       -5.73366        3.64209
C         -9.64176       -5.60910       -0.73360
C        -10.74688       -4.80807       -1.16264
C         -9.03821       -6.72043       -1.39502
C         -8.93882       -6.89069       -2.72335
C         -8.27474       -8.04755       -3.30521
C         -8.11377       -8.30925       -4.61111
C         -7.37178       -9.43385       -5.13766
C         -7.14195       -9.35572       -6.45843
C         -7.67381       -8.14637       -7.06348
S         -8.71211       -7.31210       -5.90318
C         -7.36454       -7.62998       -8.26804
C         -6.44048       -8.16327       -9.25116
C         -6.11846       -7.28901      -10.22015
C         -6.78120       -6.00645      -10.08792
S         -7.96248       -6.06582       -8.80778
C         -6.52055       -4.90697      -10.81823
C         -7.13533       -3.59940      -10.60556
C         -6.92344       -2.46482      -11.28379
C         -6.06582       -2.14682      -12.42247
C         -6.00981       -2.81277      -13.60633
C         -5.03526       -2.53997      -14.60185
N         -4.19978       -2.35019      -15.37994
C         -7.05195       -3.72839      -13.97814
N         -7.93641       -4.36881      -14.35537
C         -5.68628       -0.71238      -12.28541
C         -6.55029       -0.13339      -11.34693
C         -7.37305       -1.16457      -10.68870
O         -8.19955       -0.97896       -9.82485
C         -6.63160        1.23490      -11.11526
C         -5.81158        2.07781      -11.89938
C         -4.90826        1.49421      -12.80220
C         -4.80096        0.09656      -12.98544
S         -4.00987        2.69606      -13.65695
C         -4.83556        3.94818      -12.88679
C         -5.74674        3.51279      -11.96155
Br        -4.53185        5.75554      -13.27046
H        -15.25487       -9.90042        9.05062
H        -10.36887      -10.98939        9.12197
H        -15.59096      -12.70387        9.61136
H        -11.18991       -5.18558        8.41061
H        -13.99033       -4.79025        9.19477
H        -15.36719       -2.99885        7.84644
H        -15.42139       -1.91204        5.55116
H        -14.99014       -1.24561        3.21827
H        -14.23981       -1.25984        0.78903
H        -12.60259       -2.58827       -0.78682
H        -10.07818       -3.61683        1.70193
H         -8.53565       -6.22478        2.24697
H         -6.83205       -4.20854        0.65049
H         -4.46421       -4.88595        0.95818
H         -2.79427       -5.52874        2.71376
H         -4.20581       -6.23871        4.92933
H         -6.82052       -5.92096        4.28783
H        -11.30517       -4.92210       -2.08365
H         -8.61458       -7.48137       -0.74320
H         -9.32893       -6.12668       -3.39259
H         -7.83579       -8.73963       -2.58908
H         -7.00926      -10.23508       -4.50819
H         -6.57451      -10.09407       -7.00671
H         -6.02895       -9.16145       -9.19091
H         -5.41840       -7.50710      -11.01519
H         -5.74591       -4.97530      -11.57662
H         -7.77594       -3.51875       -9.72381
H         -7.34061        1.63580      -10.39578
H         -4.08576       -0.28748      -13.70198
H         -6.36615        4.17387      -11.36737
