88

C         13.17092      -10.51490       -7.89235
C         12.72580       -9.59946       -7.02847
C         13.51585       -9.02679       -5.97374
C         12.83195       -8.16910       -5.20652
C         11.42052       -8.05980       -5.55360
S         11.09585       -8.97673       -7.02668
C         10.49019       -7.45919       -4.78438
C         10.77059       -6.70447       -3.57511
C          9.70146       -6.52147       -2.79042
C          8.50007       -7.13286       -3.31368
S          8.74133       -7.62279       -4.97884
C          7.39844       -7.31645       -2.56627
N          6.20380       -7.99225       -2.76851
C          6.04582       -9.32934       -3.03798
S          7.37407      -10.41812       -3.22416
C          6.36814      -11.72806       -3.55710
N          6.93786      -13.00319       -3.90321
O          6.13311      -13.91340       -4.14522
O          8.17069      -13.11308       -3.93329
C          5.03161      -11.41634       -3.44994
C          4.84129      -10.02784       -3.15030
C          3.54548       -9.41128       -3.06083
C          2.95166       -8.87416       -4.13773
C          1.75481       -8.07514       -4.15259
C          1.84719       -6.71256       -4.01205
S          0.37189       -5.92422       -4.30893
C         -0.40715       -7.39548       -4.66344
C          0.41725       -8.50477       -4.49789
C         -0.16317       -9.77172       -4.76483
C         -1.49882       -9.89936       -5.23804
C         -2.31980       -8.74380       -5.38874
C         -1.74156       -7.51264       -5.10800
S         -2.79496       -6.19962       -5.40419
C         -4.07063       -7.23294       -5.85291
C         -3.69246       -8.55447       -5.80367
C         -2.08792      -11.16656       -5.69888
C         -1.52504      -12.38090       -5.76367
C         -2.26810      -13.45643       -6.38036
C         -2.67016      -14.58951       -5.77224
C         -2.34060      -14.86640       -4.33109
C         -3.49555      -15.54527       -6.60222
N         -3.88564      -16.76248       -5.92676
C         -3.13323      -17.90818       -5.87744
C         -1.83625      -18.03964       -5.58397
C         -1.12284      -19.28154       -5.62457
C         -1.64365      -20.52719       -5.49398
C         -0.56059      -21.37641       -5.69009
N         -0.44346      -22.71395       -5.78354
C          0.87880      -22.98327       -6.11157
C          1.57641      -21.77476       -6.14988
C          0.63531      -20.76908       -5.91406
C          0.42139      -19.30240       -5.86018
C          1.28064      -24.32308       -6.31394
C          0.46032      -25.24848       -6.83454
H         14.18296      -10.90219       -7.82791
H         12.53954      -10.91565       -8.67818
H         14.55027       -9.29331       -5.80764
H         13.27355       -7.68745       -4.34693
H         11.75633       -6.34690       -3.31536
H          9.74038       -6.02793       -1.83005
H          7.39764       -6.89448       -1.56174
H          5.43382       -7.56836       -2.25177
H          4.23366      -12.13181       -3.61059
H          3.07244       -9.36181       -2.08241
H          3.46514       -8.92994       -5.09131
H          2.73558       -6.12045       -3.79972
H          0.45049      -10.65936       -4.62750
H         -5.03511       -6.83286       -6.13453
H         -4.37938       -9.35253       -6.05580
H         -3.10097      -11.09290       -6.08744
H         -0.52294      -12.59932       -5.41293
H         -2.55293      -13.27620       -7.41864
H         -2.36291      -13.95234       -3.72938
H         -1.33388      -15.28840       -4.25139
H         -3.04421      -15.55305       -3.85587
H         -2.96363      -15.79855       -7.52902
H         -4.42076      -15.03673       -6.90308
H         -4.46401      -16.62389       -5.10184
H         -3.73617      -18.77289       -6.14917
H         -1.24505      -17.17658       -5.30622
H         -2.66930      -20.80924       -5.32362
H         -1.18121      -23.39269       -5.66981
H          2.62687      -21.65767       -6.37598
H          0.68037      -18.81051       -6.80266
H          0.95114      -18.83770       -5.02231
H          2.30707      -24.58919       -6.07753
H         -0.55469      -25.02852       -7.14861
H          0.80978      -26.26236       -6.99030
