103

C          9.87465      -12.48271       -3.87546
C         10.88802      -13.36069       -3.58170
C         11.25588      -13.36901       -2.18256
C         10.53774      -12.41251       -1.49122
S          9.35915      -11.64853       -2.48857
C         10.69953      -12.05662       -0.11070
C         11.12997      -12.88681        0.89757
C         11.50717      -14.28598        0.75381
O         11.18063      -15.08659        1.62959
N         12.34627      -14.64615       -0.31737
C         12.31151      -14.24360       -1.67232
O         13.11961      -14.70373       -2.48329
C         13.22017      -15.79598       -0.05527
C         14.69454      -15.40779        0.00486
C         11.11500      -12.20116        2.16864
C         10.76615      -10.86421        2.09082
S         10.39125      -10.47572        0.46222
C         10.76002       -9.90214        3.15236
C         10.19646       -8.68713        3.04418
C         10.31011       -7.67462        4.04579
S         10.67104       -6.10060        3.47867
C         10.73883       -5.41446        5.04617
N         11.14284       -4.11693        5.06884
C         10.97884       -3.20196        6.15879
C         10.39753       -6.35496        6.01160
C         10.13681       -7.66629        5.42702
C          9.71412       -8.85555        6.15685
O         10.40684       -9.85869        6.27555
O          8.42863       -8.74239        6.59596
C          7.85841       -9.96478        7.06553
C         10.42719       -6.13235        7.43773
C          9.65262       -5.26947        8.11394
C          9.79633       -5.01626        9.51916
S          9.99067       -6.31110       10.64876
C          9.64887       -5.32189       12.05267
C          9.79590       -3.99363       11.67091
C          9.87441       -3.83061       10.22433
C         10.01856       -2.58390        9.59410
C         10.19692       -1.49700       10.48227
C         10.49575       -0.21692        9.88942
N         10.74156        0.79075        9.37607
C         10.11867       -1.64251       11.90499
C         10.38191       -0.50904       12.75287
N         10.62028        0.39136       13.44448
C          9.83703       -2.88240       12.54397
C          9.35851       -6.04247       13.35539
C         10.03466       -5.71480       14.53759
C          9.74442       -6.42423       15.73669
N         10.50194       -6.18987       16.83817
C         11.38246       -5.17366       16.82484
C         11.60259       -4.44209       15.69366
N         10.97591       -4.73566       14.53943
C          8.67126       -7.34969       15.79846
C          8.01671       -7.69306       14.59868
C          8.40946       -7.09159       13.37326
N          7.87755       -7.54911       12.20968
C          7.06778       -8.61852       12.22744
C          6.63560       -9.14164       13.40789
N          7.03611       -8.62765       14.58498
C          8.26933       -7.94081       17.16280
C          8.15705       -7.06154       18.28112
C          8.05751       -7.60620       19.58303
N          8.13102       -6.86213       20.70261
C          8.25859       -5.53500       20.53740
C          8.24286       -4.96361       19.28934
N          8.16404       -5.70448       18.16137
C          7.84354       -8.94924       19.74681
C          7.73862       -9.79813       18.67381
C          8.02810       -9.33460       17.36445
N          8.02411      -10.26397       16.37341
C          7.55306      -11.50347       16.64302
C          7.20630      -11.88947       17.91155
N          7.34606      -11.05455       18.95267
H          9.41612      -12.29513       -4.83704
H         11.35992      -13.98896       -4.33010
H         13.06624      -16.54818       -0.83842
H         12.96699      -16.27897        0.89418
H         15.05836      -15.02804       -0.95439
H         15.30156      -16.28085        0.26530
H         14.86598      -14.63134        0.75692
H         11.39176      -12.68261        3.10163
H         11.28728      -10.18777        4.05952
H          9.70646       -8.38694        2.12090
H         11.22472       -3.66476        4.16046
H          9.91889       -3.03970        6.36896
H         11.40021       -2.22788        5.88910
H         11.51511       -3.54059        7.04739
H          7.55327      -10.57232        6.20750
H          6.96726       -9.72240        7.65087
H          8.54581      -10.52694        7.70552
H         11.16529       -6.72486        7.97607
H          8.90145       -4.68747        7.59339
H         10.06136       -2.44533        8.52409
H          9.74676       -2.94360       13.62066
H         11.88322       -4.95917       17.76074
H         12.28296       -3.59924       15.67501
H          6.79549       -9.03517       11.26586
H          5.98323      -10.00421       13.45332
H          8.36327       -4.94714       21.44128
H          8.31310       -3.89186       19.15264
H          7.70868       -9.34594       20.75045
H          7.43908      -12.16723       15.79493
H          6.80505      -12.87210       18.13103
