112

C        -12.84473       -4.80926       -4.66449
C        -13.15108       -6.10258       -5.10352
C        -12.82912       -7.22606       -4.32853
C        -12.23364       -7.08103       -3.07628
C        -11.97550       -5.79851       -2.61801
C        -12.24150       -4.65357       -3.42482
C        -11.64836       -3.44893       -2.74429
C        -11.95577       -2.14710       -2.93438
C        -12.93375       -1.72527       -3.87717
N        -13.73624       -1.38281       -4.64367
C        -11.36772       -1.12056       -2.14066
N        -10.85701       -0.29927       -1.49989
C        -10.74848       -4.02083       -1.69966
C        -11.35444       -5.32157       -1.35747
C        -11.57836       -5.81085       -0.11713
C        -11.30905       -5.01749        1.03660
N        -11.15851       -4.33930        1.96627
C        -12.19974       -7.07134        0.10090
N        -12.67895       -8.11545        0.26535
C         -9.46552       -3.63263       -1.50829
C         -8.39788       -4.39594       -0.90461
S         -8.34124       -6.11054       -1.00005
C         -6.91156       -6.25422       -0.08107
C         -6.36285       -5.00461        0.17297
C         -7.19681       -3.93577       -0.35826
C         -6.77040       -2.48957       -0.29845
C         -5.26699       -2.33380       -0.44069
S         -4.43347       -3.12006        0.91197
O         -3.01486       -3.13409        0.60420
O         -4.90806       -2.51177        2.14150
C         -5.02712       -4.79832        0.84744
C         -6.45865       -7.57850        0.19373
C         -5.77918       -7.90960        1.30315
C         -5.23216       -9.22546        1.63440
C         -4.56248       -9.36122        2.79903
C         -3.94194      -10.59866        3.18737
C         -3.98382      -11.79764        2.34445
C         -4.60382      -11.86830        1.17013
S         -5.45412      -10.53277        0.46845
C         -3.28466      -12.80101        3.03994
C         -2.82276      -12.29757        4.23154
C         -2.15014      -13.24489        5.01469
C         -2.12654      -14.46425        4.35224
S         -2.91971      -14.41248        2.80754
C         -3.23544      -10.92080        4.30809
C         -3.01183      -10.05348        5.43277
C         -1.80708       -9.66035        5.88184
C         -1.68068       -8.75380        6.98198
S         -2.84144       -7.51640        7.20814
C         -2.14285       -6.95392        8.66004
C         -0.94339       -7.60813        8.91385
C         -0.67090       -8.64745        7.93377
C          0.57282       -9.50099        7.96325
C          1.12563       -9.70143        9.36078
S          1.50481       -8.13859       10.11306
O          1.87477       -8.39926       11.49253
O          2.41852       -7.43000        9.23538
C         -0.07268       -7.30183       10.10732
C         -2.76841       -5.91039        9.40854
C         -4.10271       -5.77548        9.46051
C         -4.75416       -4.73797       10.22243
C         -6.00542       -4.78558       10.71710
C         -6.77236       -3.57783       11.11531
C         -6.31154       -2.52862       11.83663
C         -4.97171       -2.45944       12.31481
N         -3.87567       -2.41070       12.68548
C         -7.14325       -1.44770       12.22351
N         -7.82130       -0.56026       12.53731
C         -8.17427       -3.84381       10.64929
C         -8.28955       -5.22149       10.30213
C         -9.46520       -5.71627        9.74983
C        -10.54351       -4.84796        9.57368
C        -10.43677       -3.49746        9.92279
C         -9.24737       -2.98422       10.44853
C         -6.98435       -5.89133       10.58468
C         -6.79263       -7.19578       10.89387
C         -7.82219       -8.17504       10.79525
N         -8.65082       -8.97667       10.70459
C         -5.55929       -7.66463       11.44476
N         -4.56878       -8.05248       11.90863
H        -13.06123       -3.97632       -5.32450
H        -13.62120       -6.24322       -6.07554
H        -13.03670       -8.22308       -4.71301
H        -11.96140       -7.96614       -2.50955
H         -9.14160       -2.69473       -1.95207
H         -7.12446       -2.05857        0.64461
H         -7.23655       -1.92447       -1.11167
H         -4.97802       -1.27914       -0.42653
H         -4.89125       -2.78751       -1.36470
H         -5.07142       -5.12240        1.89107
H         -4.26083       -5.38279        0.32525
H         -6.70608       -8.33909       -0.54318
H         -5.59613       -7.15167        2.05872
H         -4.44558       -8.52206        3.48098
H         -4.60526      -12.79220        0.60196
H         -1.72333      -13.07739        5.99451
H         -1.69504      -15.39514        4.69121
H         -3.93065       -9.71334        5.90594
H         -0.89877      -10.02304        5.40807
H          1.32589       -9.02550        7.32218
H          0.36395      -10.48711        7.53322
H          2.05370      -10.28091        9.33281
H          0.41249      -10.21647       10.01278
H          0.14524       -6.23044       10.16805
H         -0.59425       -7.60717       11.02145
H         -2.13434       -5.25211        9.99718
H         -4.75255       -6.44788        8.90587
H         -4.17049       -3.81956       10.26636
H         -9.57648       -6.74555        9.42584
H        -11.47222       -5.22111        9.14493
H        -11.28487       -2.83404        9.76163
H         -9.20024       -1.92078       10.65521
