88

C        -18.02748       10.08359        1.81350
C        -17.54591       10.93403        0.82600
C        -16.14049       11.03588        0.90689
C        -15.62838       10.26669        1.93136
S        -16.76783        9.42881        2.80744
C        -14.22311       10.41053        1.95360
C        -13.84775       11.27228        0.94691
C        -15.04157       11.71922        0.22372
C        -15.11607       12.56065       -0.82570
C        -13.95602       13.15316       -1.39261
N        -13.01187       13.63555       -1.86468
C        -16.35842       12.89663       -1.43122
N        -17.37022       13.16855       -1.93065
C        -12.44659       11.45695        0.91768
C        -11.80954       10.71425        1.91665
S        -12.96570        9.80919        2.85815
C        -10.38853       10.64694        2.20832
C         -9.68415        9.59637        2.76785
C         -8.29049        9.87778        2.92051
C         -7.94438       11.14575        2.48714
S         -9.33303       11.96275        1.87244
C         -6.66224       11.78852        2.48253
C         -5.88332       11.64097        1.39333
C         -4.58712       12.26300        1.29917
C         -3.99645       13.04395        2.39514
C         -4.61454       13.28354        3.55084
S         -6.21907       12.69811        3.91955
C         -2.71196       13.44371        1.95872
C         -2.49227       12.96450        0.69108
C         -1.23727       13.29705        0.15998
C         -0.53171       14.05543        1.08250
S         -1.42065       14.31976        2.55627
C         -3.67129       12.24452        0.29032
C         -3.77601       11.57432       -0.97170
C         -4.76062       11.78872       -1.85634
C         -4.82693       11.05791       -3.06479
S         -3.47388       10.39086       -3.88831
C         -4.43271        9.66987       -5.12716
C         -5.72802        9.98311       -4.86482
C         -5.98073       10.76910       -3.74067
S         -7.70040       11.19097       -3.40636
C         -8.07251       10.26631       -4.85559
C         -9.44822       10.16341       -5.31159
O         -9.88594        9.26283       -6.01785
O        -10.15549       11.26191       -4.92873
C        -11.47618       11.38700       -5.46389
C        -11.41756       11.89073       -6.89495
C         -6.96818        9.66342       -5.48001
C         -3.77063        8.93016       -6.13602
C         -4.25776        8.85438       -7.38134
C         -3.57800        8.12042       -8.38741
C         -2.21625        7.85064       -8.52934
C         -1.96767        7.08809       -9.68303
C         -3.12812        6.80410      -10.36494
S         -4.50674        7.42696       -9.68744
C         -2.81003        6.04011      -11.50428
C         -1.44493        5.84515      -11.54206
C         -0.83181        6.50283      -10.38725
C          0.47100        6.56428      -10.04556
C          1.47359        5.94115      -10.83488
N          2.29047        5.43134      -11.47979
C          0.91217        7.25344       -8.88270
N          1.26808        7.81546       -7.93293
C         -1.06319        5.08463      -12.66579
C         -2.17815        4.74138      -13.42161
S         -3.65594        5.35022      -12.75731
H        -19.05647        9.80916        2.00674
H        -18.20140       11.42670        0.11789
H        -11.90025       12.07927        0.21946
H        -10.13741        8.65454        3.05552
H         -7.57575        9.17748        3.33769
H         -6.21929       11.04180        0.55185
H         -4.12437       13.86960        4.32163
H         -0.85988       13.02083       -0.81702
H          0.46094       14.47171        0.97271
H         -2.97019       10.87130       -1.16870
H         -5.54850       12.50670       -1.63523
H        -11.99853       12.11887       -4.83956
H        -12.02071       10.43997       -5.38456
H        -10.79674       12.79030       -6.96400
H        -12.41979       12.11826       -7.26674
H        -10.96555       11.14473       -7.55651
H         -7.08747        9.04696       -6.36417
H         -2.83365        8.44634       -5.86777
H         -5.18081        9.35378       -7.65824
H         -1.47517        8.21352       -7.82761
H         -0.06059        4.78385      -12.94237
H         -2.20817        4.16389      -14.33605
