100

C         -8.91447        0.08136       -2.99468
C         -9.35279        1.19542       -2.28970
C         -8.29509        2.11215       -2.10827
C         -7.12743        1.65916       -2.68121
S         -7.23683        0.17051       -3.41403
C         -6.11938        2.62534       -2.48752
C         -6.63748        3.68820       -1.78284
C         -8.05727        3.42424       -1.50299
C         -8.95043        4.19779       -0.85617
C         -8.58035        5.46537       -0.32906
N         -8.27221        6.49773        0.09809
C        -10.30688        3.79491       -0.68910
N        -11.41453        3.46451       -0.58389
C         -5.65376        4.68891       -1.57304
C         -4.41792        4.32197       -2.12693
S         -4.53576        2.78745       -2.94473
C         -3.18022        5.08784       -2.17728
C         -1.86087        4.66671       -2.23115
C         -1.38088        3.28886       -2.08370
O         -1.85519        2.47997       -1.30104
C         -0.20605        3.02949       -2.92302
C          0.64756        4.11665       -3.38805
C          1.60199        3.67746       -4.29246
S          1.59029        1.96462       -4.40659
C          0.22016        1.79101       -3.38048
C         -0.32150        0.40016       -3.18127
F         -1.42176        0.33117       -2.40182
F         -0.66932       -0.15909       -4.37129
F          0.60671       -0.41877       -2.62203
C          2.56340        4.43726       -5.16449
F          2.36044        5.77479       -5.16915
F          3.85250        4.22467       -4.80386
F          2.44775        4.04999       -6.46425
C          0.43486        5.51380       -2.97470
O          1.30835        6.36660       -3.01832
C         -0.94722        5.76086       -2.54851
C         -1.52941        7.00919       -2.34287
S         -3.24912        6.78577       -2.36897
C         -0.91298        8.31823       -2.27152
C         -1.31458        9.34163       -1.49015
C         -0.62629       10.61343       -1.33535
C         -1.13575       11.40126       -0.36765
C         -2.25328       10.80164        0.34246
S         -2.69444        9.29937       -0.43595
C         -2.89619       11.22474        1.44839
C         -2.70871       12.46137        2.17609
C         -3.47333       12.56570        3.27644
C         -4.29596       11.40142        3.53797
S         -4.12738       10.23718        2.25795
C         -5.07016       11.22450        4.62251
C         -5.78757       10.01269        4.87728
C         -7.05368        9.60895        4.48691
C         -7.97854       10.38555        3.64923
O         -7.92855       11.59964        3.52692
C         -8.99837        9.53040        3.01324
C         -9.34378        8.22290        3.56069
C        -10.28696        7.55274        2.80002
S        -10.79018        8.51940        1.47569
C         -9.73031        9.81879        1.87032
C         -9.73709       11.00623        0.94953
F         -8.89404       12.00001        1.30429
F         -9.39427       10.65446       -0.31840
F        -10.97702       11.55945        0.87575
C        -10.87004        6.17303        2.93382
F        -10.39933        5.47502        3.99146
F        -12.22049        6.21272        3.05807
F        -10.59723        5.41679        1.83790
C         -8.71261        7.70823        4.77629
O         -9.25781        6.94370        5.55724
C         -7.38984        8.28577        4.98951
C         -6.32717        7.66262        5.62373
S         -5.01297        8.76660        5.77419
C         -6.20616        6.27787        6.06724
C         -6.82011        5.14170        5.51967
C         -6.40264        3.95480        6.16613
C         -5.49995        4.22851        7.16824
S         -5.16908        5.83677        7.39880
C         -5.07427        3.01535        7.74688
C         -5.72931        1.97120        7.12905
C         -6.61270        2.50341        6.08896
C         -7.39762        1.81041        5.24484
C         -7.50049        0.38907        5.30306
N         -7.57735       -0.76266        5.34298
C         -8.12920        2.45507        4.20517
N         -8.68522        2.97201        3.32793
C         -5.32513        0.72403        7.65161
C         -4.34447        0.89838        8.62101
S         -3.96796        2.56467        8.90380
H         -9.49208       -0.78444       -3.28985
H        -10.37727        1.29818       -1.95345
H         -5.80855        5.63217       -1.06073
H          0.02150        8.44626       -2.81619
H          0.24072       10.88110       -1.92691
H         -0.71992       12.36418       -0.10271
H         -2.03607       13.23957        1.84343
H         -3.47599       13.43135        3.92461
H         -5.13996       12.00625        5.37313
H         -7.50975        5.18320        4.68673
H         -5.67657       -0.25694        7.35637
H         -3.82051        0.13382        9.17915
