116

C          5.39083       -0.01591        4.36289
C          4.26799       -0.65612        3.85215
C          3.35203        0.28774        3.34162
C          3.81802        1.57640        3.48877
S          5.30993        1.70722        4.21026
C          2.85950        2.46889        2.96776
C          1.78731        1.75068        2.48884
C          2.03782        0.32171        2.69624
C          1.24888       -0.72028        2.36867
C         -0.00986       -0.53343        1.73547
N         -1.03671       -0.37631        1.21866
C          1.63338       -2.06240        2.63623
N          1.94873       -3.15837        2.85609
C          0.79088        2.60136        1.95427
C          1.15907        3.94498        2.06629
S          2.73040        4.11093        2.80617
C          0.40793        5.10987        1.64152
C         -0.50814        5.20592        0.58853
C         -1.03490        6.51557        0.48377
C         -0.51315        7.33976        1.45174
S          0.57148        6.62965        2.47852
C         -1.06142        8.62611        1.30547
C         -1.93424        8.62942        0.24416
C         -1.97202        7.28552       -0.34294
C         -2.69631        6.85757       -1.39487
C         -3.56907        7.72720       -2.10471
N         -4.28091        8.44056       -2.68051
C         -2.62710        5.51262       -1.85167
N         -2.56632        4.41455       -2.22095
C         -2.50590        9.90936        0.05359
C         -2.02474       10.82752        0.99107
S         -0.89252       10.06994        2.08726
C         -2.36155       12.22921        1.11517
C         -3.21379       12.99058        0.35998
C         -3.33905       14.39870        0.74500
C         -2.56022       14.65486        1.89041
S         -1.70519       13.20594        2.29009
C         -2.51504       15.93011        2.57144
C         -1.67800       16.15116        3.86124
C         -0.88593       15.17002        4.48698
C         -0.12163       15.35595        5.65323
C         -0.10419       16.57972        6.29077
C         -0.87027       17.58812        5.74532
C         -1.61420       17.35844        4.57714
C          0.66675       16.80780        7.54690
C         -3.28763       17.00164        1.97681
C         -4.01487       16.75807        0.79357
C         -4.09558       15.47080        0.16055
C         -4.94068       15.23186       -1.10113
C         -5.18620       16.22198       -2.07664
C         -5.94583       16.00920       -3.24484
C         -6.55439       14.78481       -3.48152
C         -6.37404       13.78627       -2.53458
C         -5.56876       14.00479       -1.39863
C         -7.41248       14.54679       -4.68708
S         -4.76396       18.24116        0.24814
C         -4.25863       19.17197        1.53289
C         -3.49178       18.39347        2.35392
C         -4.59186       20.57300        1.67479
C         -5.71803       21.24185        1.18615
C         -5.68121       22.61718        1.50987
C         -4.54737       22.93145        2.22324
S         -3.52685       21.66013        2.52173
C         -4.55338       24.30918        2.51453
C         -5.68954       24.87481        1.98600
C         -6.47482       23.83621        1.31708
C         -7.65006       23.96980        0.66929
C         -8.30137       25.23315        0.55674
N         -8.82755       26.25893        0.46572
C         -8.29176       22.86800        0.06910
N         -8.82005       21.94240       -0.42860
C         -5.74181       26.26185        2.24795
C         -4.62477       26.68866        2.97494
S         -3.54796       25.36006        3.30805
C         -4.31110       28.03078        3.43010
C         -3.19888       28.45287        4.16653
C         -3.24283       29.84111        4.41919
C         -4.36875       30.41543        3.87463
S         -5.37046       29.36713        3.07162
C         -4.36437       31.79581        4.16041
C         -3.23243       32.09633        4.88803
C         -2.45269       30.87438        5.09344
C         -1.28286       30.73672        5.74763
C         -0.63068       31.84454        6.35662
N         -0.09996       32.74929        6.85352
C         -0.63770       29.47468        5.86328
N         -0.11688       28.44235        5.95525
C         -3.17120       33.46843        5.20927
C         -4.27686       34.13708        4.69771
S         -5.35934       33.08960        3.84287
H          6.26069       -0.46693        4.82151
H          4.15910       -1.73354        3.86987
H         -0.15109        2.28358        1.52411
H         -0.74891        4.37077       -0.05812
H         -3.21957       10.17703       -0.71544
H         -3.73690       12.52730       -0.45422
H         -0.79542       14.16697        4.12665
H          0.45273       14.51781        6.04347
H         -0.91317       18.56821        6.21567
H         -2.14397       18.23086        4.30992
H          1.36344       15.98686        7.74347
H         -0.01971       16.88905        8.39551
H          1.25337       17.72927        7.47094
H         -4.80285       17.22801       -1.97642
H         -6.05405       16.82430       -3.95806
H         -6.86005       12.82024       -2.66041
H         -5.48242       13.14675       -0.74840
H         -7.31077       15.35344       -5.42072
H         -8.46588       14.48236       -4.39522
H         -7.12466       13.61382       -5.18361
H         -3.10192       18.90394        3.19831
H         -6.50254       20.73730        0.63294
H         -6.53153       26.93700        1.93897
H         -2.41866       27.77373        4.49053
H         -2.39714       33.97634        5.77107
H         -4.51126       35.19020        4.77923
