101

C          3.92160        1.86986        2.67314
C          3.20482        2.26831        1.51806
C          2.22317        3.37979        1.63476
O          1.17218        3.39169        1.02196
O          2.57556        4.35180        2.49831
C          3.32523        1.53540        0.30990
C          2.55269        1.82915       -0.86916
N          1.97428        1.98745       -1.85787
C          4.18473        0.42850        0.24274
C          4.86528        0.06793        1.39051
C          4.76548        0.76997        2.59748
C          5.51890        0.01066        3.63099
C          6.13715        0.53841        4.71322
C          6.12029        1.94199        4.95536
N          6.07775        3.09727        5.07463
C          6.92168       -0.25067        5.60100
N          7.54130       -0.90335        6.33318
C          5.65537       -1.35533        3.08850
C          5.61182       -1.18095        1.59708
O          6.10223       -1.86452        0.72654
C          5.56641       -2.52246        3.74692
C          5.45644       -3.81009        3.13311
C          4.87788       -4.23017        1.92679
C          5.08198       -5.60786        1.69596
C          5.72533       -6.19479        2.75455
S          6.08712       -5.18156        4.01543
C          5.96005       -7.54987        2.45298
C          5.47116       -7.83088        1.20062
C          4.84927       -6.61157        0.65395
C          4.21479       -6.45378       -0.52801
C          4.06145       -7.56163       -1.40867
N          3.95421       -8.48768       -2.09706
C          3.66007       -5.20201       -0.93319
N          3.20297       -4.18815       -1.25807
C          5.77077       -9.16614        0.82308
C          6.48905       -9.85275        1.81995
S          6.72937       -8.79834        3.21178
C          7.07633      -11.17805        1.83286
C          7.64477      -11.65741        0.70252
C          8.42209      -12.87997        0.69463
C          8.74826      -13.59677        1.93734
C          8.23860      -13.30591        3.13148
S          7.05609      -12.06075        3.36866
C          9.64140      -14.62900        1.59463
C          9.86374      -14.61127        0.24042
C         10.72275      -15.64205       -0.18327
C         11.13968      -16.39526        0.90535
S         10.45641      -15.84417        2.40072
C          9.10463      -13.50478       -0.31590
C          9.07835      -13.13126       -1.71508
C         10.09014      -13.33745       -2.57466
C         10.07017      -13.00475       -3.98751
C          9.86917      -11.73431       -4.38662
C          9.89155      -11.36014       -5.77506
C         10.18656      -12.33223       -6.83774
C         10.41535      -13.62864       -6.63457
S         10.40455      -14.36075       -5.05747
C         10.17216      -11.61820       -8.05128
C          9.89108      -10.29565       -7.80366
C          9.84060       -9.52163       -8.97678
C         10.12647      -10.30960      -10.08252
S         10.41133      -11.96845       -9.66696
C          9.72550      -10.13913       -6.36923
C          9.42753       -8.89584       -5.67730
C          9.80243       -7.69033       -6.13304
C          9.57992       -6.42153       -5.46275
C          9.91966       -5.21095       -5.94738
C          9.86104       -3.84621       -5.30994
C          9.46266       -3.46459       -4.07342
C          9.41620       -2.10475       -3.64002
N          9.35682       -1.00986       -3.25691
C          9.07732       -4.40021       -3.07105
N          8.78791       -5.15751       -2.24226
C         10.39886       -2.95993       -6.30754
C         10.75484       -3.61452       -7.46278
C         11.32229       -2.77805       -8.44728
C         11.38791       -1.47774       -7.98881
S         10.77473       -1.31878       -6.38736
C         10.46336       -5.02305       -7.37794
O         10.59351       -5.83097       -8.27676
H          3.73671        2.35915        3.62521
H          3.48713        4.35686        2.84708
H          4.26307       -0.18361       -0.65499
H          5.52148       -2.52032        4.83462
H          4.39008       -3.55400        1.23694
H          5.52311       -9.62803       -0.12561
H          7.63411      -11.08088       -0.21694
H          8.52210      -13.88060        4.00731
H         11.03664      -15.84638       -1.19819
H         11.80601      -17.24726        0.90356
H          8.15779      -12.67140       -2.06878
H         11.01885      -13.79144       -2.23827
H          9.72106      -10.94866       -3.65288
H         10.62177      -14.28880       -7.47152
H          9.62840       -8.46209       -9.04518
H         10.18119       -9.99803      -11.11703
H          8.89983       -8.98122       -4.73141
H         10.38151       -7.66661       -7.04885
H          9.13766       -6.52954       -4.47816
H         11.66735       -3.10202       -9.42233
H         11.77178       -0.61033       -8.50910
