77

C         -5.17937        0.53011       -1.69190
S         -5.39599       -1.12133       -2.03401
C         -4.17856       -1.66273       -0.90140
C         -3.74919       -0.55270       -0.16715
C         -4.33454        0.69309       -0.63121
C         -4.10402        1.95505       -0.08066
C         -3.24852        1.91387        1.04528
C         -2.99761        3.16114        1.71775
N         -2.81402        4.17643        2.24717
C         -2.65186        0.69954        1.52747
C         -1.82020        0.72430        2.70182
N         -1.16155        0.70556        3.65593
C         -2.85381       -0.57254        0.91857
C         -3.86429       -3.10384       -0.81378
S         -3.42870       -3.81174        0.70468
C         -3.20025       -5.40672        0.10241
C         -3.62395       -5.44585       -1.21508
C         -3.91529       -4.12194       -1.76486
C         -4.24236       -3.94140       -3.12480
C         -4.35058       -5.13909       -3.87866
C         -4.73833       -5.00237       -5.25810
N         -5.05844       -4.86067       -6.36347
C         -4.11179       -6.43159       -3.32296
C         -4.25210       -7.61076       -4.14034
N         -4.35785       -8.57022       -4.77498
C         -3.72779       -6.62841       -1.97402
C         -2.62181       -6.43447        0.96140
S         -1.58100       -7.69013        0.31881
C         -1.31020       -8.42720        1.84921
C         -1.91363       -7.68973        2.82257
C         -2.64640       -6.59476        2.32534
C         -3.20412       -5.94261        3.45364
C         -2.82680       -6.54095        4.60852
C         -1.98251       -7.74831        4.25893
O         -1.48946       -8.57019        5.00756
C         -3.23839       -6.14180        5.92526
C         -2.60981       -6.41768        7.08179
C         -3.14301       -6.00528        8.34890
S         -4.84544       -5.82654        8.55316
C         -4.78124       -5.50438       10.23787
C         -3.45339       -5.45172       10.63872
C         -2.52010       -5.72033        9.55173
C         -1.12255       -5.69591        9.70384
C         -0.69658       -5.37951       11.02142
C          0.72759       -5.31759       11.25133
N          1.87111       -5.26929       11.42379
C         -1.61118       -5.13176       12.09946
C         -1.11612       -4.82293       13.41579
N         -0.75266       -4.57287       14.48830
C         -3.02297       -5.17284       11.94820
C         -6.03214       -5.27291       10.95593
S         -6.13441       -3.95673       12.08747
C         -7.74554       -4.30544       12.52573
C         -8.24999       -5.32422       11.76491
C         -7.28024       -5.88469       10.84957
C         -7.61204       -6.93716        9.97412
C         -8.97064       -7.35083       10.06026
C         -9.39124       -8.38661        9.15202
N         -9.70665       -9.21477        8.40387
C         -9.91074       -6.78185       10.98644
C        -11.26435       -7.26692       11.03016
N        -12.35981       -7.64276       11.08528
C         -9.57560       -5.74200       11.88907
H         -5.72688        1.28030       -2.24874
H         -4.55269        2.87398       -0.44457
H         -2.35750       -1.44849        1.31276
H         -4.41036       -2.98792       -3.60867
H         -3.56180       -7.62722       -1.58706
H         -0.70553       -9.31901        1.95061
H         -3.83839       -5.06784        3.40172
H         -4.15213       -5.55066        5.92765
H         -1.66994       -6.96739        7.08015
H         -0.41456       -5.87951        8.90203
H         -3.67578       -4.99407       12.79412
H         -8.23689       -3.71906       13.29103
H         -6.93682       -7.41048        9.27210
H        -10.28852       -5.31696       12.58739
