86

C          3.00619        7.69387       -8.91951
N          2.98165        9.00381       -8.45910
C          3.67479       10.11278       -9.06791
C          2.78678       10.87270      -10.04042
C          2.15067        9.13450       -7.32544
O          1.87410       10.12040       -6.66303
C          1.67506        7.75947       -7.11902
C          2.24831        6.92764       -8.13581
C          1.75311        5.56032       -7.92202
O          1.99673        4.58633       -8.60455
N          0.92142        5.68317       -6.77015
C          0.18838        4.49816       -6.36247
C         -0.74612        4.47484       -5.16534
C          0.89404        7.01407       -6.33341
C          0.12023        7.55676       -5.26352
C          0.13316        7.08583       -4.01133
C         -0.73862        7.62078       -2.97929
C         -0.75482        8.98488       -2.75339
C         -1.55848        9.50203       -1.74068
N         -1.43812       10.93324       -1.60777
O         -1.98633       11.62401       -2.47739
O         -0.75672       11.35801       -0.66498
C         -2.37733        8.69627       -0.92400
C         -2.34494        7.31274       -1.18311
C         -1.53469        6.78106       -2.19553
C         -3.27502        9.12317        0.17410
C         -3.48585       10.39219        0.52594
C         -4.34252       10.79012        1.56757
S         -5.96064       11.16788        1.21360
C         -6.17563       11.96339        2.72684
C         -5.06592       11.80316        3.54646
C         -4.01288       11.12079        2.85725
C         -4.93225       12.29541        4.91033
O         -5.86356       12.51118        5.67865
C         -7.40285       12.65603        2.88191
C         -7.50203       13.79106        3.59000
C         -8.73631       14.47433        3.70435
S         -9.79317       14.57601        2.38462
C        -10.96052       15.51374        3.22537
C        -10.52220       15.76630        4.52438
C         -9.24148       15.16468        4.78232
C        -11.24814       16.54802        5.51593
O        -10.98887       16.52519        6.71651
C        -12.15474       15.92206        2.54668
C        -12.48261       15.47299        1.32188
C        -13.62846       15.89698        0.59644
S        -13.46635       15.97939       -1.13676
C        -15.07531       16.49943       -1.36624
C        -15.73574       16.60121       -0.17046
C        -14.91567       16.24840        0.96241
C        -15.39231       16.24134        2.28059
C        -16.73459       16.66619        2.37537
S        -17.46821       16.77774        4.00659
C        -17.53556       17.01206        1.24017
C        -17.07117       16.98738       -0.09304
H          3.57386        7.40286       -9.79743
H          4.56968        9.74079       -9.57616
H          3.99830       10.79496       -8.27338
H          2.44080       10.21954      -10.84851
H          3.33617       11.70819      -10.48491
H          1.90394       11.27530       -9.53394
H          0.94229        3.71775       -6.20255
H         -0.39171        4.17947       -7.23628
H         -0.19221        4.52016       -4.22529
H         -1.28247        3.52052       -5.12869
H         -1.50150        5.26381       -5.20549
H         -0.45896        8.44618       -5.51750
H          0.76803        6.25648       -3.72300
H         -0.13807        9.65264       -3.35357
H         -2.95130        6.61708       -0.60090
H         -1.54520        5.70646       -2.37116
H         -3.80194        8.33180        0.70831
H         -3.03392       11.24411        0.04424
H         -3.02371       10.94996        3.27288
H         -3.89363       12.46633        5.23791
H         -8.26245       12.25595        2.34763
H         -6.65673       14.22557        4.11104
H         -8.71849       15.24438        5.73058
H        -12.05466       17.19412        5.13869
H        -12.78581       16.64331        3.05030
H        -11.84028       14.77698        0.78505
H        -15.44223       16.69122       -2.36546
H        -14.82878       15.93641        3.14936
H        -16.48446       17.50746        4.55534
H        -18.57062       17.30828        1.40644
H        -17.69649       17.24040       -0.93770
