91

C         -3.27663       -0.34479        3.63854
N         -4.44176        0.06859        2.99762
C         -5.80132       -0.30328        3.32392
C         -5.95499       -1.24703        4.50217
C         -4.16639        0.95357        1.93559
O         -4.92107        1.52425        1.17089
C         -2.70034        1.03626        1.97572
C         -2.22052        0.21889        3.05407
C         -0.75954        0.34718        3.09933
O         -0.00915       -0.16663        3.91010
N         -0.47344        1.22072        2.01760
C          0.87805        1.70061        1.78836
C          1.31960        1.86912        0.34307
C         -1.65611        1.62203        1.39450
C         -1.76857        2.54312        0.31711
C         -1.44077        3.83316        0.43155
C         -1.61790        4.67768       -0.68227
S         -1.80846        6.35569       -0.42051
C         -1.94702        6.53942       -2.12739
N         -1.87824        5.40035       -2.78573
N         -1.67550        4.33074       -1.95380
C         -2.13857        7.80586       -2.71856
C         -1.59823        8.91229       -2.19402
C         -1.73339       10.22831       -2.75673
C         -1.72057       10.59199       -4.11134
C         -1.50574        9.74607       -5.17612
S         -1.64034       10.56434       -6.67858
C         -1.91773       12.06974       -5.90835
C         -1.86971       11.96187       -4.53668
C         -1.99989       13.01203       -3.62108
N         -2.01551       12.62826       -2.31395
N         -1.87667       11.26752       -1.89272
C         -2.10007       14.42158       -3.89220
C         -1.43858       15.07590       -4.85758
C         -1.55106       16.47743       -5.04810
S         -2.50325       17.45962       -4.00309
C         -2.11318       18.80317       -4.99002
N         -1.27887       18.51701       -5.96524
N         -0.97472       17.16940       -6.01172
C         -2.70518       20.02890       -4.61836
C         -2.02236       21.17426       -4.64997
C         -2.43813       22.45004       -4.13035
N         -3.49680       22.75035       -3.25610
C         -4.45155       21.89184       -2.58932
C         -5.87142       22.07386       -3.11496
C         -3.50363       24.12532       -2.91924
O         -4.26075       24.70478       -2.16545
C         -2.35722       24.67253       -3.65706
C         -1.75553       23.57757       -4.36495
C         -0.57597       24.08593       -5.07924
O          0.20461       23.44687       -5.75751
N         -0.59229       25.45810       -4.76740
C          0.42240       26.34955       -5.28741
C          1.65011       26.42372       -4.39326
C         -1.65365       25.78401       -3.90342
C         -1.86813       27.11895       -3.40294
C         -2.85695       27.52865       -2.59832
H         -3.27349       -1.01325        4.48669
H         -6.24013       -0.75256        2.42543
H         -6.35760        0.62247        3.51200
H         -5.43170       -2.19063        4.31994
H         -7.01227       -1.47256        4.67198
H         -5.55208       -0.80090        5.41668
H          1.56592        0.98623        2.26089
H          0.99175        2.64196        2.33460
H          1.15286        0.95689       -0.23691
H          2.38761        2.11413        0.30722
H          0.81170        2.68956       -0.16374
H         -2.21827        2.15930       -0.59679
H         -1.04697        4.24284        1.35456
H         -2.71391        7.81655       -3.63813
H         -1.04983        8.90793       -1.25600
H         -1.28700        8.68832       -5.18782
H         -2.08908       12.94017       -6.52756
H         -2.72029       14.92691       -3.15642
H         -0.76698       14.56445       -5.53884
H         -3.70879       19.96368       -4.23319
H         -1.02336       21.15877       -5.09636
H         -4.44901       22.16209       -1.52551
H         -4.15803       20.84723       -2.60571
H         -6.23859       23.08736       -2.91744
H         -6.55397       21.37778       -2.61610
H         -5.92922       21.90404       -4.19409
H         -0.00194       27.34376       -5.45281
H          0.73268       25.97628       -6.27075
H          1.38844       26.73242       -3.37650
H          2.36727       27.14572       -4.79730
H          2.14988       25.45123       -4.33049
H         -1.15494       27.88190       -3.70659
H         -3.63233       26.87800       -2.21648
H         -2.92331       28.56547       -2.28471
