105

C          2.07277        0.44780       -2.04536
C          1.17600        0.11290       -3.04259
N          0.26689       -0.88574       -2.91094
C          0.27514       -1.53594       -1.71951
C          1.19667       -1.19659       -0.72684
N          2.11268       -0.20174       -0.86306
C         -0.73132       -2.59604       -1.57347
C         -1.32340       -3.39340       -2.52364
C         -2.18147       -4.44525       -1.98767
C         -2.83539       -5.52245       -2.63542
C         -2.63636       -5.73060       -4.09574
C         -3.57208       -5.97276       -5.09221
C         -2.99599       -6.13458       -6.38499
C         -1.63676       -5.92005       -6.37897
S         -1.04955       -5.79418       -4.77723
C         -0.69909       -5.83872       -7.53729
Cl        -3.94015       -6.50550       -7.76362
C         -3.67499       -6.40163       -1.91530
C         -3.89230       -6.25133       -0.53595
C         -3.20618       -5.18699        0.16199
C         -2.35670       -4.30439       -0.59831
S         -1.41596       -2.93575       -0.07200
C         -3.41614       -5.00821        1.66734
C         -4.39426       -5.50810        2.52779
C         -4.26709       -5.12510        3.90000
C         -3.26091       -4.21542        4.08415
S         -2.32905       -4.09053        2.67179
C         -2.89038       -3.43122        5.29837
Cl        -5.32040       -5.71666        5.11182
C         -4.81622       -7.29585       -0.10486
C         -5.32879       -8.13049       -1.08262
S         -4.51890       -7.79419       -2.53500
C         -6.32156       -9.23917       -0.97713
C         -7.31320       -9.56624       -1.94734
C         -8.22176      -10.69223       -1.80429
N         -9.12221      -10.96784       -2.77333
C         -9.15143      -10.16541       -3.85955
C         -8.31701       -9.09299       -3.99246
N         -7.40000       -8.77973       -3.04662
F         -8.39133       -8.30317       -5.07159
F        -10.05101      -10.44997       -4.81625
C         -8.21838      -11.53090       -0.67143
C         -7.29680      -11.19346        0.36619
C         -6.32593      -10.04789        0.20141
N         -5.50965       -9.92222        1.26283
S         -5.93667      -11.06735        2.36948
N         -7.17627      -11.79289        1.55796
C         -9.10023      -12.71748       -0.51589
C        -10.43733      -12.89670       -0.81671
C        -10.94316      -14.25543       -0.64189
C        -12.14933      -14.91255       -1.04827
C        -13.07434      -14.23840       -2.04553
C        -12.89264      -13.11253       -2.84812
C        -13.97782      -12.81827       -3.73037
C        -14.95268      -13.78051       -3.68007
S        -14.70099      -14.78691       -2.33529
C        -16.12521      -13.97999       -4.58114
Cl       -13.96891      -11.46327       -4.77420
C        -12.40081      -16.22780       -0.55085
C        -11.64467      -16.78532        0.49517
C        -10.38883      -16.18506        0.81381
C        -10.02168      -14.98278        0.13586
S         -8.46463      -14.21702       -0.02988
C         -9.46382      -16.88617        1.78775
C         -9.49437      -18.18522        2.29627
C         -8.41363      -18.51601        3.16811
C         -7.49162      -17.50427        3.24274
S         -8.11978      -16.08613        2.54418
C         -6.13249      -17.52102        3.85690
Cl        -8.28480      -20.04161        3.93208
C        -12.39756      -17.88574        1.08282
C        -13.41251      -18.38065        0.29098
S        -13.51079      -17.44502       -1.11343
C        -14.31269      -19.52280        0.51663
C        -15.01781      -20.18239       -0.49205
N        -15.85875      -21.22519       -0.26039
C        -15.97515      -21.58918        1.03312
C        -15.27614      -20.95021        2.04329
N        -14.42860      -19.91624        1.81171
H          2.78780        1.25748       -2.16711
H          1.15912        0.64579       -3.98707
H          1.24469       -1.72222        0.22170
H         -1.09033       -3.26652       -3.57397
H         -4.63704       -6.04454       -4.90760
H         -0.43515       -6.83863       -7.89367
H          0.22334       -5.30584       -7.28223
H         -1.16228       -5.29077       -8.36637
H         -5.21902       -6.12949        2.23356
H         -3.72108       -3.38023        6.01050
H         -2.63568       -2.39684        5.03815
H         -2.03274       -3.88164        5.80636
H         -5.12345       -7.44511        0.91306
H        -11.02527      -12.07299       -1.19319
H        -12.00245      -12.50617       -2.86649
H        -16.84643      -13.16498       -4.47404
H        -16.64373      -14.92600       -4.38996
H        -15.79125      -14.00658       -5.62577
H        -10.24019      -18.92426        2.05166
H         -6.19549      -17.59127        4.94650
H         -5.54889      -16.63032        3.60083
H         -5.56824      -18.38745        3.49040
H        -12.17707      -18.35153        2.03385
H        -14.93252      -19.90517       -1.53723
H        -16.64990      -22.41296        1.23784
H        -15.38384      -21.25432        3.07851
