105

C         -9.16514        1.50152       -1.41151
C        -10.55394        1.42678       -1.50380
F        -11.21660        2.36433       -2.19484
C        -11.24711        0.38712       -0.90173
F        -12.57720        0.29315       -1.03590
C        -10.57032       -0.56660       -0.15084
C         -9.17536       -0.49323       -0.01534
C         -8.44587        0.52836       -0.69842
C         -7.02844        0.53346       -0.67175
C         -6.35280       -0.44498        0.04485
C         -7.11003       -1.35022        0.79947
C         -8.49202       -1.41586        0.77929
C         -6.19906       -2.22338        1.54368
O         -6.34493       -2.53513        2.70782
C         -4.95524       -2.24953        0.71475
C         -4.91691       -0.85991        0.16998
C         -3.82791       -0.07374        0.01312
C         -2.51730       -0.54872        0.30690
N         -1.44764       -0.93540        0.53553
C         -3.93013        1.29260       -0.36772
N         -4.03590        2.40847       -0.68230
C         -4.27727       -3.33358        0.26537
C         -4.46342       -4.82433        0.43250
C         -3.57283       -5.70915       -0.19947
F         -2.55956       -5.19493       -0.92191
C         -3.71416       -7.13884       -0.16861
O         -2.90739       -7.77673       -1.08024
C         -3.64830       -8.41146       -2.12340
C         -4.57841       -7.79489        0.73805
C         -5.41942       -6.85448        1.38583
C         -5.49915       -5.47074        1.09276
O         -6.55002       -4.74747        1.56679
C         -7.86348       -5.26142        1.36638
F         -6.12003       -7.18834        2.47508
C         -4.63640       -9.31895        1.04436
C         -5.70333       -9.98333        1.74577
C         -5.71197      -11.38931        2.12328
N         -6.64197      -11.86401        2.98284
C         -7.48188      -10.99025        3.56434
C         -7.56586       -9.70515        3.11753
N         -6.75870       -9.25551        2.13451
F         -8.41440       -8.83581        3.68335
F         -8.20464      -11.40157        4.61494
C         -4.76094      -12.31638        1.66505
C         -3.67051      -11.73658        0.97501
C         -3.57333      -10.23549        0.72144
N         -2.37545       -9.93859        0.19420
S         -1.58055      -11.33094       -0.17113
N         -2.62633      -12.41804        0.47643
C         -4.81585      -13.77991        1.95552
C         -4.96023      -14.19865        3.30355
F         -4.86504      -13.25982        4.26176
C         -5.13938      -15.54031        3.69923
O         -5.41616      -15.91026        4.99552
C         -6.35288      -15.05722        5.66931
C         -4.99626      -16.55027        2.74292
C         -4.79182      -16.16208        1.40614
C         -4.73757      -14.81023        0.99764
O         -4.46818      -14.63571       -0.33908
C         -5.40006      -13.85812       -1.07634
F         -4.66902      -17.12377        0.47163
C         -5.18614      -17.98850        3.01160
C         -4.43110      -18.97672        3.52395
C         -5.12031      -20.32208        3.54346
O         -6.17240      -20.63899        3.02644
C         -4.27954      -21.21603        4.33923
C         -4.61505      -22.51518        4.70145
C         -3.76384      -23.20553        5.56722
C         -2.58445      -22.56480        6.04420
C         -1.75498      -23.26220        6.93986
C         -2.08668      -24.55094        7.35420
C         -3.23531      -25.16888        6.88278
C         -4.07282      -24.50864        5.99096
F         -3.55332      -26.40554        7.28989
F         -1.28743      -25.18816        8.22062
C         -2.27486      -21.24510        5.62730
C         -3.11746      -20.55871        4.75247
C         -3.10012      -19.18122        4.13542
C         -1.99660      -18.39405        4.05462
C         -1.97105      -17.13747        3.38398
N         -1.87321      -16.11499        2.86370
C         -0.72448      -18.78029        4.58195
N          0.30470      -19.09463        5.00047
H         -8.66004        2.32731       -1.90585
H        -11.14454       -1.36493        0.31238
H         -6.49574        1.28570       -1.24683
H         -9.00850       -2.18657        1.34331
H         -3.45280       -3.12828       -0.42113
H         -4.13040       -9.33011       -1.77785
H         -2.93983       -8.69477       -2.90813
H         -4.39994       -7.74475       -2.55575
H         -8.55155       -4.58881        1.89047
H         -8.01409       -6.25866        1.78212
H         -8.12865       -5.24020        0.30406
H         -6.61211      -15.52918        6.62263
H         -7.27779      -14.93885        5.09200
H         -5.92462      -14.08242        5.91770
H         -6.43675      -14.06380       -0.79571
H         -5.27222      -14.11145       -2.13415
H         -5.18045      -12.79298       -0.98741
H         -6.18607      -18.27001        2.66169
H         -5.53726      -22.95830        4.33300
H         -0.84591      -22.81430        7.33395
H         -4.96827      -25.01928        5.64557
H         -1.37951      -20.78680        6.03583
