140

C          0.70206        1.82091        2.36691
C         -0.10337        2.25101        3.36663
C         -1.36864        1.65267        3.63074
N         -2.39351        1.14729        3.83561
C          0.34926        3.17380        4.35439
N          0.72362        3.87109        5.20289
C          0.49731        0.56084        1.61919
C          1.75326       -0.03667        1.43367
C          1.90013       -1.30567        0.89844
C          0.74460       -1.97866        0.46426
C         -0.52162       -1.32618        0.53306
C         -0.63677       -0.05600        1.12045
C         -1.65677       -1.96584        0.01763
C         -1.56898       -3.24944       -0.51864
C         -0.34535       -3.91255       -0.53796
C          0.80480       -3.28077       -0.05783
C          2.82193        0.92667        1.79728
O          4.01904        0.74235        1.74457
C          2.09611        2.20068        2.13960
C          2.68142        3.38506        1.89734
C          1.93676        4.58794        1.73266
C          1.69549        5.61897        2.60994
C          0.91023        6.71129        2.06712
C          0.53532        7.96351        2.62249
C          1.11506        8.37444        3.93703
C          2.40290        8.19774        4.42779
C          2.62622        8.81500        5.69649
C          1.50997        9.47771        6.15296
S          0.15972        9.14686        5.15861
C          1.38926       10.35225        7.35785
C         -0.31155        8.83154        1.89301
C         -0.91276        8.43328        0.68912
C         -0.47886        7.21437        0.09446
C          0.46200        6.39655        0.77412
S          1.26852        4.96401        0.21171
C         -1.02988        6.77981       -1.22890
C         -1.33936        5.50485       -1.68993
C         -1.89760        5.47829       -3.00398
C         -2.04573        6.74137       -3.52593
S         -1.32921        7.90979       -2.50795
C         -2.70309        7.14072       -4.80542
C         -1.94028        9.38993        0.31700
C         -1.97683       10.53216        1.08786
S         -0.70317       10.48890        2.21209
C         -2.86422       11.71415        0.97386
C         -3.16467       12.19356       -0.30959
C         -3.97540       13.31286       -0.48419
C         -4.51132       13.99655        0.61863
C         -4.22636       13.50630        1.92840
N         -4.71921       14.11442        3.03813
C         -4.41655       13.64984        4.26051
C         -3.64994       12.53500        4.41563
N         -3.16224       11.87405        3.35192
C         -3.41014       12.35478        2.10295
C         -5.36084       15.20920        0.35747
C         -5.93194       15.69327       -0.81164
C         -6.75801       16.89290       -0.65829
C         -7.54032       17.65423       -1.58063
C         -7.59164       17.21528       -3.00336
C         -6.57377       16.74486       -3.82447
C         -7.01561       16.36561       -5.12972
C         -8.35701       16.61181       -5.31223
S         -9.08375       17.15777       -3.86975
C         -9.17355       16.41570       -6.54572
C         -8.20862       18.83122       -1.14310
C         -8.09793       19.26217        0.18502
C         -7.45134       18.43364        1.12786
C         -6.74675       17.30098        0.67917
S         -5.70977       16.30885        1.60028
C         -7.48890       18.78904        2.58537
C         -7.32178       20.01070        3.22326
C         -7.38682       19.94356        4.64729
C         -7.50509       18.64932        5.09319
S         -7.87112       17.59714        3.79611
C         -7.38378       18.14954        6.49372
C         -8.62671       20.58370        0.31348
C         -9.47423       20.99053       -0.68259
S         -9.23369       19.94677       -2.01707
C        -10.38853       22.09016       -0.75654
C        -11.01321       22.66118        0.29987
C        -12.16673       23.61058        0.27593
C        -12.36485       24.63057       -0.60071
C        -13.44514       25.55025       -0.46780
N        -14.32983       26.29205       -0.35479
C        -11.47705       24.88763       -1.67824
N        -10.75488       25.08994       -2.57687
C        -12.95896       23.33744        1.52333
C        -12.18407       22.51626        2.34677
C        -10.89659       22.24562        1.73688
O         -9.94339       21.90160        2.39984
C        -12.57421       22.01816        3.57827
C        -13.83786       22.35770        4.03693
C        -14.66654       23.20677        3.24928
C        -14.21831       23.68484        1.98725
C        -15.92913       23.54421        3.75875
C        -16.36398       23.04864        4.99288
C        -15.54907       22.20284        5.74099
C        -14.28804       21.85939        5.26553
H          2.88813       -1.74915        0.80359
H         -1.60904        0.42585        1.17621
H         -2.62526       -1.47006        0.03117
H         -2.45964       -3.73341       -0.91184
H         -0.28642       -4.92391       -0.93344
H          1.74915       -3.82053       -0.09113
H          3.73565        3.41684        1.62162
H          2.06605        5.59902        3.62832
H          3.18352        7.67739        3.88841
H          3.57538        8.81408        6.21946
H          1.35130        9.75039        8.27092
H          0.49780       10.98766        7.32488
H          2.25697       11.01971        7.43048
H         -1.19471        4.60242       -1.11170
H         -2.21046        4.57631       -3.51735
H         -2.71344        6.30763       -5.51686
H         -2.19056        7.98103       -5.28343
H         -3.74399        7.43220       -4.62187
H         -2.63264        9.24758       -0.50162
H         -2.75123       11.70572       -1.19095
H         -4.16466       13.64757       -1.50115
H         -4.81498       14.21055        5.09670
H         -3.39859       12.13855        5.39086
H         -5.78875       15.20047       -1.76255
H         -5.54165       16.65478       -3.50971
H         -6.37376       15.95173       -5.89915
H         -8.69361       16.89489       -7.40658
H        -10.17863       16.84073       -6.45203
H         -9.27578       15.34778       -6.76255
H         -7.13482       20.94263        2.71106
H         -7.26921       20.79822        5.30245
H         -6.72726       18.80918        7.07548
H         -6.93871       17.14921        6.53006
H         -8.35745       18.12143        6.99052
H         -8.44872       21.18841        1.17828
H        -10.66529       22.38354       -1.76589
H        -11.90356       21.37474        4.14281
H        -14.88921       24.30748        1.40387
H        -16.59084       24.20154        3.19882
H        -17.34541       23.32248        5.37153
H        -15.89219       21.81155        6.69527
H        -13.66054       21.19726        5.86032
