112

C        -14.26388        1.02461       -6.06466
C        -15.63991        1.02960       -6.30957
F        -16.13940        1.88257       -7.21340
C        -16.48409        0.15264       -5.64791
F        -17.79538        0.13491       -5.91507
C        -15.97857       -0.72859       -4.70307
C        -14.60718       -0.74476       -4.43811
C        -13.71237        0.12512       -5.13812
C        -12.31148        0.03307       -4.92449
C        -11.82303       -0.92617       -4.04686
C        -12.74983       -1.73850       -3.37619
C        -14.11658       -1.65956       -3.52016
C        -12.08462       -2.82460       -2.66660
O        -12.61385       -3.58900       -1.88916
C        -10.67023       -2.77915       -3.13356
C        -10.45755       -1.43737       -3.71843
C         -9.28574       -0.77046       -3.82169
C         -8.06152       -1.34997       -3.38670
N         -7.07897       -1.85178       -3.02332
C         -9.20661        0.56374       -4.29449
N         -9.14841        1.66579       -4.67682
C         -9.94407       -3.89916       -3.27584
C        -10.45131       -5.24855       -3.07999
C        -10.80620       -6.09888       -4.08130
N        -10.77313       -5.78054       -5.49194
O        -10.60497       -6.72614       -6.27330
O        -10.91838       -4.59839       -5.83674
C        -11.12946       -7.41723       -3.59722
C        -10.93338       -7.43185       -2.27343
C        -10.48841       -6.09699       -1.85064
C        -10.18741       -5.77022       -0.57474
C        -10.23599       -4.43784        0.02200
C         -9.96946       -4.56196        1.33303
C         -9.61778       -5.93947        1.59892
N         -8.99482       -6.36532        2.83130
O         -9.36293       -5.78627        3.86235
O         -8.10529       -7.22564        2.78587
C         -9.73822       -6.70598        0.49706
C         -9.23216       -8.04632        0.32435
C         -9.97374       -9.16222        0.34344
C         -9.44405      -10.47347       -0.04733
C        -10.05787      -11.63648        0.39765
C         -9.62121      -12.90150       -0.04655
C         -8.58534      -13.06926       -0.98327
C         -7.92679      -11.88060       -1.31492
C         -8.36720      -10.61268       -0.91465
C         -8.13247      -14.39956       -1.53668
C         -8.62976      -15.64257       -1.26982
N         -9.88425      -15.96854       -0.64497
O        -10.90273      -15.39027       -1.04336
O         -9.87144      -16.88213        0.19413
C         -7.75054      -16.70970       -1.67694
C         -6.66052      -16.17603       -2.23084
C         -6.84025      -14.72357       -2.28968
C         -6.03173      -13.97965       -3.08140
C         -6.43546      -12.82115       -3.88109
C         -5.32927      -12.26393       -4.39944
C         -4.18874      -13.04743       -3.97856
N         -2.82025      -12.62530       -4.19707
O         -1.97524      -12.85699       -3.31950
O         -2.59601      -11.99002       -5.23616
C         -4.55102      -14.13425       -3.25965
C         -3.62539      -15.01345       -2.57527
C         -3.44573      -16.32069       -2.79889
C         -2.51580      -17.21825       -2.13920
C         -1.69985      -17.02913       -1.09078
C         -0.56982      -17.99628       -0.88679
O         -0.50651      -19.15627       -1.23301
C          0.49632      -17.20275       -0.24142
C          1.77623      -17.62747        0.06228
C          2.66168      -16.69099        0.60904
C          2.25779      -15.32673        0.75695
C          3.17078      -14.39142        1.26185
C          4.43687      -14.80202        1.66481
C          4.81384      -16.13379        1.56017
C          3.94346      -17.07650        1.02278
F          6.02267      -16.52667        1.98361
F          5.28558      -13.89914        2.17409
C          0.94677      -14.93441        0.43433
C          0.04736      -15.89382        0.00197
C         -1.41659      -15.88367       -0.22909
C         -2.30241      -15.20832        0.54281
C         -3.66660      -15.61799        0.63766
N         -4.76750      -15.96873        0.74318
C         -1.92120      -14.11464        1.37065
N         -1.60175      -13.19991        2.00891
H        -13.63824        1.71586       -6.62217
H        -16.66000       -1.41308       -4.20736
H        -11.64556        0.66028       -5.51026
H        -14.75935       -2.35655       -2.98892
H         -8.99009       -3.87273       -3.80040
H        -11.51747       -8.22622       -4.19807
H        -11.20867       -8.25654       -1.64185
H        -10.57228       -3.52843       -0.44025
H        -10.00439       -3.78331        2.07977
H         -8.16261       -8.08420        0.12071
H        -11.03678       -9.11853        0.56906
H        -10.88459      -11.58661        1.10387
H        -10.13414      -13.73668        0.41527
H         -7.00825      -11.87074       -1.87453
H         -7.83456       -9.74838       -1.30404
H         -7.95691      -17.76304       -1.55967
H         -5.90568      -16.77109       -2.70253
H         -7.45035      -12.49314       -4.05385
H         -5.27298      -11.39048       -5.03252
H         -3.01499      -14.48721       -1.85281
H         -4.00253      -16.79564       -3.60748
H         -2.43575      -18.17773       -2.66021
H          2.06186      -18.66125       -0.11257
H          2.90612      -13.34282        1.37097
H          4.27357      -18.10953        0.95329
H          0.65173      -13.89477        0.55120
