113

C          0.72500       -0.53268       -0.17384
C          2.04743       -0.87121       -0.45374
F          3.03425       -0.12257        0.05440
C          2.34661       -1.98304       -1.22998
F          3.62141       -2.31654       -1.47124
C          1.33209       -2.77561       -1.74537
C         -0.00148       -2.46959       -1.45394
C         -0.32164       -1.32935       -0.65353
C         -1.66406       -1.04851       -0.31025
C         -2.66517       -1.92109       -0.70891
C         -2.29655       -3.04577       -1.45956
C         -1.01137       -3.31919       -1.88662
C         -3.40871       -3.98556       -1.56599
O         -3.38507       -5.02289       -2.19291
C         -4.51103       -3.40433       -0.72862
C         -4.12899       -2.00971       -0.40723
C         -4.94444       -0.98523       -0.08372
C         -6.35835       -1.14706        0.01899
N         -7.50662       -1.29298        0.08038
C         -4.47568        0.34527        0.10024
N         -4.07584        1.42366        0.24407
C         -5.52330       -4.14571       -0.25491
C         -5.70161       -5.57151       -0.44841
C         -5.53210       -6.52259        0.50754
N         -5.13846       -6.26179        1.87677
O         -4.60915       -7.19686        2.49279
O         -5.36958       -5.14598        2.36315
C         -5.75709       -7.85436       -0.00029
C         -6.09660       -7.75784       -1.29246
C         -6.15999       -6.33445       -1.65380
C         -6.57567       -5.86361       -2.85300
C         -6.27515       -4.53622       -3.39107
C         -6.65450       -4.50840       -4.67515
C         -7.33507       -5.74762       -4.97023
N         -8.05117       -5.94104       -6.21206
O         -7.60930       -5.34124       -7.20268
O         -9.06862       -6.64813       -6.21334
C         -7.35440       -6.58912       -3.90977
C         -8.06483       -7.85919       -3.83504
C         -8.73375       -8.30081       -2.75366
C         -9.41587       -9.54818       -2.74205
S         -9.50189      -10.50992       -1.28713
C        -10.45905      -11.78659       -2.01982
C        -10.71568      -11.41051       -3.31472
C        -10.14381      -10.18704       -3.70196
N        -10.53361       -9.88793       -4.98827
C        -11.38914      -10.92136       -5.41011
S        -12.20215      -10.97448       -6.84397
N        -11.46717      -11.88201       -4.37224
C        -10.89336      -12.90702       -1.24758
C        -10.19525      -14.05523       -1.05483
N         -8.85745      -14.33196       -1.52221
O         -8.57880      -15.52531       -1.71018
O         -8.05974      -13.39715       -1.65366
C        -10.91801      -15.00238       -0.22518
C        -12.04086      -14.41907        0.21154
C        -12.06637      -13.05749       -0.32128
C        -12.97080      -12.13148        0.05109
C        -13.32908      -10.97596       -0.77023
C        -14.34447      -10.34827       -0.16303
C        -14.62465      -11.03103        1.08279
N        -15.62694      -10.53953        2.00418
O        -15.81680       -9.31512        2.01459
O        -16.27316      -11.35747        2.67153
C        -13.82244      -12.10702        1.28702
C        -13.82005      -12.92911        2.50156
C        -12.85592      -13.34921        3.34781
C        -11.41061      -13.25697        3.24535
C        -10.48966      -13.68714        4.13024
C         -9.13848      -14.07659        3.58390
O         -8.64888      -13.75931        2.51983
C         -8.57528      -15.04378        4.55853
C         -7.39733      -15.77006        4.42519
C         -7.04124      -16.66958        5.43883
C         -7.91605      -16.84775        6.56193
C         -7.55165      -17.74151        7.57600
C         -6.35173      -18.44394        7.51042
C         -5.50691      -18.27598        6.42340
C         -5.84345      -17.40453        5.39208
F         -4.34858      -18.94997        6.36388
F         -6.01884      -19.27688        8.50487
C         -9.11338      -16.11289        6.64469
C         -9.43172      -15.18845        5.66350
C        -10.51806      -14.16569        5.52398
C        -11.08710      -13.52323        6.57556
C        -11.71277      -12.25388        6.41399
N        -12.16090      -11.19322        6.30618
C        -10.94125      -13.96377        7.92775
N        -10.83015      -14.33660        9.02919
H          0.53419        0.33828        0.44787
H          1.59756       -3.64825       -2.33687
H         -1.87505       -0.19368        0.32536
H         -0.80995       -4.21807       -2.46410
H         -6.23732       -3.72255        0.44942
H         -5.60855       -8.76652        0.55829
H         -6.21787       -8.59875       -1.95717
H         -5.71988       -3.74228       -2.93587
H         -6.48855       -3.70490       -5.37778
H         -8.05550       -8.45473       -4.74709
H         -8.74710       -7.72196       -1.83411
H        -10.32792       -9.03466       -5.49410
H        -12.04021      -12.71123       -4.39183
H        -10.60968      -16.01939       -0.03546
H        -12.81782      -14.89020        0.79351
H        -12.96795      -10.73216       -1.75597
H        -14.89998       -9.50210       -0.54119
H        -14.83075      -13.22986        2.79548
H        -13.21339      -13.93312        4.19884
H        -11.04319      -12.94547        2.27000
H         -6.76680      -15.62559        3.54979
H         -8.18590      -17.89719        8.45119
H         -5.15380      -17.29992        4.55980
H         -9.76792      -16.27853        7.49474
