104

C          2.83312       -0.24396        0.38336
N          2.35766        0.39752       -0.75142
C          2.54673       -0.07438       -2.10537
C          3.84267        0.43588       -2.71379
C          1.68855        1.59580       -0.43804
O          1.16051        2.40133       -1.17614
C          1.79558        1.64744        1.03754
C          2.50390        0.47124        1.45817
C          2.58719        0.48836        2.92159
O          3.06842       -0.37413        3.62816
N          1.94948        1.71033        3.26526
C          1.74144        2.00786        4.67051
C          1.75180        3.46210        5.11081
C          1.47330        2.36817        2.11792
C          0.71701        3.59265        2.12308
C          0.78795        4.53027        1.16223
C          0.02893        5.75536        1.16630
C         -0.38476        6.39118        0.04646
C         -1.06833        7.63368        0.43389
C         -0.98803        7.67561        1.91030
C         -0.33046        6.57608        2.31088
C         -1.49170        8.64030        2.79683
N         -1.93406        9.43425        3.53269
C         -1.61730        8.54267       -0.40351
C         -2.23809        9.80382        0.00576
C         -2.57735       10.52858       -1.08342
C         -2.25127        9.70444       -2.25073
C         -1.69724        8.53716       -1.86630
C         -1.31150        7.52408       -2.77361
N         -0.99986        6.70929       -3.54204
C         -3.16668       11.89211       -1.03590
C         -2.83397       12.87775       -0.07971
C         -3.39086       14.21712       -0.09662
N         -2.96820       15.09942        0.83446
C         -2.12257       14.69593        1.82321
C         -1.61576       13.42587        1.84892
N         -1.94467       12.53572        0.88158
C         -0.69852       12.96346        2.84974
N          0.06635       12.62177        3.65364
C         -1.80917       15.67322        2.82173
N         -1.53727       16.44903        3.64148
C         -4.36135       14.65511       -1.04224
C         -4.75943       13.65406       -1.98630
C         -4.13497       12.27450       -2.00245
N         -4.61062       11.50758       -3.00002
S         -5.72842       12.39615       -3.82562
N         -5.71361       13.77829       -2.92510
C         -4.94587       16.04195       -1.09396
C         -5.17759       16.72580       -2.30040
F         -4.84878       16.16227       -3.47340
C         -5.70466       18.03149       -2.35710
F         -5.89403       18.56064       -3.57730
C         -5.99266       18.78441       -1.21039
C         -5.76568       18.11016       -0.00248
C         -5.28614       16.78220        0.05210
F         -5.18744       16.22472        1.26958
F         -6.01834       18.72204        1.16645
C         -6.47808       20.19414       -1.28340
C         -7.32676       20.63533       -2.30138
C         -7.79279       21.97102       -2.43145
C         -8.70476       22.26910       -3.61288
C         -9.49695       21.12868       -4.24669
C         -7.35686       22.96689       -1.50310
C         -6.50397       22.53220       -0.43234
C         -6.09757       21.16932       -0.35904
C         -5.99590       23.48893        0.65078
C         -5.08857       22.90315        1.74055
C         -7.81988       24.40408       -1.54056
C         -8.36743       25.11234       -2.54859
C         -8.93920       26.49525       -2.45918
H          3.36798       -1.18085        0.33795
H          1.70484        0.27442       -2.71435
H          2.52839       -1.16940       -2.10375
H          3.84933        1.52968       -2.76748
H          3.96514        0.04361       -3.72822
H          4.70796        0.12501       -2.11939
H          2.53668        1.49820        5.23029
H          0.80458        1.52696        4.97531
H          2.55811        4.02832        4.63710
H          1.88803        3.51537        6.19719
H          0.79944        3.95528        4.90270
H          0.02637        3.72939        2.94802
H          1.43699        4.39328        0.29857
H         -0.22229        6.02097       -0.95383
H         -0.08725        6.31819        3.33155
H         -2.37619       10.13456        1.01874
H         -2.45284        9.99475       -3.27013
H         -7.64733       19.90128       -3.03385
H         -8.09117       22.73193       -4.39656
H         -9.48231       22.96387       -3.28779
H         -8.86195       20.33186       -4.64169
H        -10.08103       21.51626       -5.08832
H        -10.19426       20.70064       -3.51960
H         -5.44243       20.85551        0.44900
H         -6.86074       23.92527        1.16444
H         -5.43869       24.29747        0.16272
H         -5.60747       22.12747        2.31635
H         -4.77798       23.68030        2.44576
H         -4.17826       22.46620        1.31424
H         -7.70061       24.94446       -0.60392
H         -8.48168       24.70397       -3.54261
H         -9.10884       26.82221       -1.43014
H         -9.90926       26.51781       -2.97345
H         -8.28336       27.20850       -2.96595
