122

C         -2.60909       -2.32646        5.08762
N         -3.92033       -2.00462        4.76258
C         -4.84011       -2.89828        4.09142
C         -4.37502       -3.26691        2.69227
C         -4.26295       -0.70549        5.18828
O         -5.29903       -0.08446        5.06200
C         -3.01705       -0.24478        5.83732
C         -2.04678       -1.29251        5.70806
C         -0.80452       -0.83669        6.32775
O          0.24446       -1.44637        6.37901
N         -1.14754        0.44800        6.82709
C         -0.14547        1.17808        7.56683
C          0.15671        0.55414        8.92469
C         -2.47816        0.77893        6.51319
C         -3.25387        1.95741        6.82171
C         -2.93743        3.09156        7.45529
C         -3.87836        4.15974        7.70756
C         -4.88991        4.17406        8.61551
N         -5.28197        3.07003        9.46537
O         -5.15680        1.91436        9.04641
O         -5.77473        3.36678       10.56352
C         -5.40809        5.50993        8.80669
C         -4.75193        6.32884        7.97622
C         -3.88182        5.53838        7.12556
C         -3.28440        6.01778        6.01123
C         -2.29747        5.28695        5.22048
C         -1.86194        6.10320        4.25059
C         -2.58190        7.35835        4.33682
N         -2.38106        8.43234        3.38258
O         -1.70553        8.16096        2.37981
O         -2.84915        9.55019        3.62641
C         -3.47411        7.36357        5.35484
C         -4.45402        8.40766        5.64272
C         -5.78712        8.28025        5.48993
C         -6.67348        9.33186        5.88922
S         -7.53741       10.25057        4.72463
C         -8.20005       11.38645        5.89960
C         -7.88989       10.88117        7.15635
C         -7.06902        9.70054        7.16240
C         -6.70277        8.99804        8.45186
C         -7.53135        9.40409        9.67715
C         -8.83724        8.60815        9.74409
F         -9.25866        8.17422        8.53938
F         -8.66200        7.51265       10.52201
F         -9.84158        9.32755       10.29156
C         -7.70674       10.92012        9.68939
C         -8.40583       11.39230        8.43715
C         -8.95771       12.54481        5.43461
C         -8.51293       13.30613        4.38683
N         -7.15742       13.36768        3.86867
O         -7.03155       13.69432        2.68277
O         -6.22129       13.20181        4.66170
C         -9.56722       14.06678        3.75947
C        -10.68755       13.88493        4.45864
C        -10.36062       13.14048        5.69333
C        -11.24054       13.19298        6.73717
C        -11.19613       12.53651        8.02420
C        -12.39790       12.56780        8.61033
C        -13.20968       13.48108        7.85262
N        -14.34452       14.09701        8.47990
O        -15.43820       13.96930        7.89786
O        -14.17693       14.62968        9.57764
C        -12.52041       14.01784        6.81684
C        -12.72270       15.31507        6.18488
C        -13.85309       16.01939        6.06406
C        -13.99111       17.23671        5.30035
C        -13.32316       18.40826        5.44935
N        -12.33779       18.70457        6.47246
O        -11.64735       19.71890        6.29607
O        -12.22915       17.95366        7.44900
C        -13.65891       19.34414        4.40277
C        -14.51443       18.75698        3.55355
C        -14.81467       17.40990        4.04508
C        -15.66285       16.51868        3.47112
C        -16.16988       15.30459        4.12486
C        -16.97590       14.66156        3.27175
C        -17.00930       15.39729        2.03157
N        -17.71013       14.89804        0.85938
O        -18.10855       13.72208        0.91797
O        -17.88349       15.64198       -0.10590
C        -16.26218       16.52947        2.09230
C        -15.96297       17.37579        0.95621
C        -16.36561       18.64134        0.79622
H         -2.16787       -3.28283        4.84795
H         -5.82391       -2.42029        4.03350
H         -4.94609       -3.79825        4.70721
H         -4.23286       -2.37176        2.07807
H         -5.11261       -3.90985        2.20338
H         -3.42307       -3.80747        2.72038
H         -0.40406        2.22283        7.68889
H          0.77395        1.16591        6.96998
H         -0.73254        0.53595        9.56144
H          0.93924        1.12354        9.43650
H          0.51476       -0.47566        8.82205
H         -4.29377        1.87553        6.48592
H         -1.94760        3.31053        7.82616
H         -6.10377        5.79427        9.58269
H         -4.78035        7.39799        7.97549
H         -1.93711        4.28537        5.38192
H         -1.11586        5.87071        3.50463
H         -4.03844        9.35428        5.99237
H         -6.22661        7.36151        5.11030
H         -5.65269        9.23125        8.66324
H         -6.81794        7.92333        8.30520
H         -6.96254        9.13922       10.57732
H         -6.72995       11.40808        9.77695
H         -8.29595       11.22533       10.56316
H         -8.41973       12.48555        8.42573
H         -9.39593       10.93618        8.48348
H         -9.48555       14.56688        2.80343
H        -11.66305       14.21572        4.13981
H        -10.37107       12.40950        8.67492
H        -12.59187       12.30748        9.64340
H        -11.80692       15.76301        5.79605
H        -14.78225       15.68097        6.49286
H        -13.28968       20.35739        4.34277
H        -14.95328       19.26566        2.71847
H        -16.03674       14.97168        5.13649
H        -17.52795       13.75537        3.47230
H        -15.43124       16.89398        0.13513
H        -16.94536       19.17044        1.54509
H        -16.11712       19.17834       -0.11547
