132

C         13.66534       -9.69783       -0.39255
C         13.93820      -10.95000       -1.18906
O         13.85875      -12.09129       -0.78789
C         14.23098      -10.46678       -2.57926
C         14.16652       -9.05973       -2.59120
C         14.25918       -8.62863       -1.18921
C         15.17189       -7.71454       -0.77202
C         15.69151       -7.75190        0.55541
N         16.17677       -7.82790        1.60457
C         15.76471       -6.76038       -1.66112
N         16.20456       -5.98567       -2.38765
C         14.13764       -8.34861       -3.77454
C         14.34112       -9.05376       -4.95765
C         14.61003      -10.43934       -4.94670
C         14.53897      -11.18182       -3.73703
C         14.84809      -12.55487       -3.75601
C         15.26195      -13.16976       -4.93797
C         15.32979      -12.43848       -6.12043
C         14.98590      -11.08760       -6.12875
C         12.75920       -9.69861        0.60794
C         12.06343       -8.54529        1.14089
S         12.25455       -6.97805        0.43588
C         11.07723       -6.19664        1.38447
C         10.54719       -7.09570        2.28219
C         11.10644       -8.43707        2.14923
C         10.67197       -9.51361        2.94517
C          9.67798       -9.14835        3.90026
C          9.13388      -10.17197        4.87363
F          9.67371      -11.41065        4.72482
F          9.35467       -9.81470        6.16940
F          7.78582      -10.32920        4.75630
C          9.14405       -7.82252        4.00454
C          9.53648       -6.75582        3.18805
C         10.84750       -4.82846        1.07641
C         10.46986       -3.93229        1.99607
C         10.24768       -2.53825        1.68796
C         10.97891       -1.61942        2.38202
C         10.77862       -0.21163        2.14901
C         11.37999        0.89911        2.66864
C         12.59052        1.00367        3.60499
C         13.75250        1.83955        2.97524
N         14.94557        1.98478        3.82329
C         12.26583        1.53393        5.02683
N         11.36045        0.68607        5.79567
C         10.62172        2.02006        2.08504
C         10.67597        3.34776        2.27589
C          9.76368        4.32293        1.53362
C          8.75754        3.64473        0.59845
C          8.72081        2.32245        0.38987
C          9.62141        1.50565        1.15037
C          9.72498        0.17507        1.18562
C          8.99256       -0.81457        0.43943
C          9.25335       -2.10867        0.68580
C         10.57684        5.29302        0.70890
C         11.48135        6.20038        1.12972
C         12.16126        7.06671        0.20405
S         11.35592        7.55835       -1.26184
C         12.66145        8.50593       -1.83292
C         13.69524        8.48230       -0.92396
C         13.40606        7.68482        0.25567
C         14.31391        7.55653        1.32384
C         15.52907        8.28037        1.13709
C         16.58762        8.24319        2.22818
F         16.20314        7.53285        3.32655
F         17.75513        7.68003        1.81198
F         16.91299        9.48415        2.68679
C         15.79353        9.05256       -0.04867
C         14.88822        9.18779       -1.12374
C         12.47357        9.21755       -3.04898
C         12.74572        8.66216       -4.24040
C         12.47438        9.36782       -5.47632
C         11.25866        9.72099       -5.91704
C         11.14268       10.80913       -6.94140
O         11.99844       11.13596       -7.73689
C          9.81109       11.42936       -6.70834
C          9.12440       10.69477       -5.71501
C          9.90996        9.47223       -5.40915
C          9.39689        8.26834       -5.05637
C         10.15239        7.06475       -5.18530
N         10.73802        6.07147       -5.33717
C          8.03051        8.08895       -4.69736
N          6.91803        7.95162       -4.39608
C          7.92335       11.17244       -5.21952
C          7.38695       12.34144       -5.77079
C          8.03641       13.04209       -6.81029
C          9.28920       12.59359       -7.29433
C          9.92126       13.32819       -8.32137
C          9.32019       14.46131       -8.87003
C          8.08550       14.88938       -8.39725
C          7.45196       14.18930       -7.37007
H         13.99941       -7.27147       -3.80331
H         14.35647       -8.49916       -5.89549
H         14.82333      -13.14523       -2.84163
H         15.54771      -14.21850       -4.93074
H         15.66363      -12.91592       -7.03804
H         15.05390      -10.53424       -7.06342
H         12.40266      -10.67078        0.95001
H         11.04329      -10.52877        2.87005
H          8.38060       -7.61765        4.75945
H          9.06360       -5.78984        3.29091
H         11.04588       -4.49308        0.05939
H         10.33624       -4.19068        3.04055
H         11.68863       -1.93631        3.14349
H         12.99278       -0.01061        3.73580
H         13.41463        2.84583        2.71235
H         14.07457        1.35831        2.04465
H         14.70960        2.37866        4.73211
H         15.58449        2.66065        3.40447
H         11.87620        2.55666        4.98029
H         13.17947        1.58107        5.62830
H         10.51347        0.50837        5.26104
H         11.08671        1.17808        6.64515
H         11.37541        3.77995        2.97929
H          9.17037        4.87095        2.27708
H          8.07198        4.27977        0.04177
H          8.03561        1.87338       -0.32164
H          8.26423       -0.51658       -0.30573
H          8.70763       -2.87559        0.13922
H         10.38244        5.20602       -0.35894
H         11.71780        6.28184        2.18722
H         14.13716        6.97745        2.22296
H         16.75085        9.57512       -0.12864
H         15.11545        9.77969       -2.00165
H         12.06436       10.22274       -2.97360
H         13.19202        7.67191       -4.32427
H         13.36108        9.70934       -6.01243
H          7.38130       10.68138       -4.41720
H          6.43514       12.70637       -5.38395
H         10.88598       13.01751       -8.71810
H          9.81776       15.00399       -9.67009
H          7.61361       15.76884       -8.82816
H          6.48740       14.54696       -7.01448
