78

C         -9.32424       -0.86091        2.48139
N         -9.86490       -1.35022        3.60593
C         -9.41401       -2.55744        3.98834
C         -8.46293       -3.26894        3.29350
C         -7.97156       -2.67030        2.15055
N         -8.39180       -1.46014        1.72618
C         -6.97095       -3.36448        1.32879
C         -6.42636       -2.83604        0.22203
C         -5.47941       -3.63604       -0.58700
N         -5.10662       -4.86554       -0.31762
C         -4.27952       -5.17762       -1.34901
C         -4.17843       -4.07021       -2.26308
C         -3.28021       -4.44618       -3.38471
O         -2.93570       -3.80384       -4.35183
C         -2.88008       -5.82001       -3.01320
C         -3.52217       -6.18174       -1.77583
N         -3.15402       -7.43928       -1.41851
C         -2.34977       -7.79254       -2.38377
C         -2.11675       -6.80680       -3.46140
C         -4.88565       -3.03480       -1.82766
C         -5.06607       -1.72553       -2.36670
C         -4.10202       -1.06340       -3.02427
C         -4.30808        0.25731       -3.48171
N         -3.26911        0.85099       -4.16642
C         -3.65044        2.12119       -4.48955
C         -3.20311        3.29511       -5.13827
C         -4.25666        4.18950       -5.02721
N         -5.30042        3.58142       -4.36525
C         -4.90989        2.31764       -4.03519
C         -5.36676        1.14663       -3.39437
C         -4.41857        5.50241       -5.53060
C         -5.14999        6.43142       -4.89894
C         -5.28964        7.75772       -5.53072
N         -5.25927        7.96514       -6.82462
C         -5.47076        9.29877       -6.92978
C         -5.64817        9.88588       -5.62533
C         -5.88539       11.34462       -5.79259
O         -6.09090       12.19566       -4.95648
C         -5.80212       11.51378       -7.26095
C         -5.55443       10.23405       -7.86956
N         -5.47184       10.36977       -9.21809
C         -5.65499       11.64983       -9.39063
C         -5.87622       12.46800       -8.17909
C         -5.52447        8.96749       -4.67252
C         -5.58351        9.04967       -3.24413
C         -5.21485       10.13548       -2.54474
C         -5.20300       10.23275       -1.08630
N         -4.77956       11.40284       -0.58139
C         -4.70767       11.47924        0.75646
C         -5.02316       10.43451        1.59071
C         -5.45842        9.28033        0.97336
N         -5.55826        9.15822       -0.36498
C         -5.82407        8.11093        1.78220
C         -6.69977        7.17819        1.38425
H         -9.67552        0.11022        2.15032
H         -9.85552       -2.95168        4.89909
H         -8.13181       -4.24114        3.63251
H         -6.69142       -4.36478        1.64976
H         -6.68992       -1.83968       -0.11046
H         -1.84156       -8.76431       -2.43704
H         -1.50198       -6.88715       -4.33469
H         -6.03128       -1.25953       -2.19412
H         -3.13371       -1.52631       -3.20034
H         -2.36757        0.45568       -4.40826
H         -2.25253        3.46895       -5.62212
H         -6.22026        3.94944       -4.16271
H         -6.32762        0.97981       -2.92936
H         -3.89779        5.74818       -6.45504
H         -5.64394        6.25418       -3.95389
H         -5.65293       12.14405      -10.37339
H         -6.04111       13.52321       -8.09742
H         -5.91494        8.16359       -2.70750
H         -4.86620       11.03772       -3.03775
H         -4.37671       12.43620        1.14863
H         -4.95089       10.53224        2.66490
H         -5.35430        8.02567        2.75746
H         -7.20490        7.24387        0.42483
H         -6.94094        6.33431        2.02153
