113

C          1.21529        0.83911       -0.50167
C          2.19457        0.11124        0.08280
C          2.42530       -1.24966       -0.24537
N          2.61051       -2.36055       -0.52501
C          3.00269        0.65586        1.12661
N          3.65682        1.12649        1.96352
C          0.20948        0.37575       -1.49665
C         -0.90831        1.22039       -1.40638
C         -1.98283        1.16675       -2.27701
C         -1.92983        0.24034       -3.32249
C         -0.81772       -0.64599       -3.43238
C          0.24779       -0.57496       -2.50617
C         -0.78535       -1.55539       -4.50054
C         -1.80165       -1.57266       -5.45883
C         -2.87030       -0.68662       -5.36180
C         -2.93975        0.20842       -4.29473
C         -0.66345        2.28506       -0.41837
O         -1.48391        3.04881        0.04007
C          0.81206        2.21013       -0.14623
C          1.59829        3.28916        0.01797
C          1.14471        4.66151        0.02327
C          1.33101        5.47567        1.09093
C          0.61330        6.71976        0.89377
C          0.55943        7.79318        1.81398
N          0.52321        8.70150        2.53390
C         -0.03622        6.67664       -0.27811
C          0.35877        5.44816       -0.96716
C          0.05692        5.16636       -2.25464
C         -0.74935        5.98721       -3.18547
C         -1.02286        5.20572       -4.25063
C         -0.28910        3.96470       -4.14420
C          0.41107        3.95792       -2.99886
C         -0.21696        3.01756       -5.19111
N         -0.15353        2.27193       -6.07840
C         -1.07854        7.38894       -3.23802
C         -0.14076        8.34176       -3.13674
C         -0.44963        9.75295       -3.37547
C         -0.90973       10.50293       -2.29268
C         -1.15582       11.85636       -2.45331
C         -0.92590       12.47227       -3.69211
C         -0.45885       11.74467       -4.80693
C         -0.25454       10.35469       -4.64896
C          0.14641        9.62362       -5.79139
C          0.38046       10.25871       -7.00238
C          0.21520       11.62338       -7.04413
N         -0.20283       12.35817       -5.99000
C         -1.13160       13.92210       -3.75930
C         -0.11632       14.76635       -3.46534
C         -0.49921       16.12014       -3.80620
C          0.29371       17.25745       -3.53463
N          0.94685       18.18801       -3.29939
C         -1.72253       16.11819       -4.36337
C         -2.19876       14.73491       -4.37510
C         -3.39172       14.33056       -4.85036
C         -4.25110       15.01799       -5.83730
C         -5.34614       14.23780       -5.98564
C         -5.26425       13.09204       -5.10056
C         -4.09573       13.11894       -4.44200
C         -6.28501       12.12218       -4.95082
N         -7.11530       11.32170       -4.82707
C         -3.97102       16.11926       -6.72990
C         -3.79808       15.98463       -8.05577
C         -3.53491       17.09477       -8.95020
C         -4.31910       18.16377       -9.17379
C         -4.11894       19.31443      -10.09826
C         -2.93843       19.81177      -10.53305
C         -2.84155       20.98427      -11.33563
N         -2.76302       21.93687      -11.99389
C         -1.68018       19.23444      -10.18893
N         -0.65083       18.77034       -9.90423
C         -5.46465       19.95018      -10.27727
C         -6.35031       19.38049       -9.35786
C         -5.70868       18.29393       -8.61172
O         -6.26556       17.63915       -7.75615
C         -7.67936       19.74949       -9.22686
C         -8.17649       20.73255      -10.08168
C         -7.31629       21.31434      -11.05491
C         -5.96252       20.91423      -11.14386
C         -7.84488       22.28238      -11.92166
C         -9.18304       22.67403      -11.83168
C        -10.01729       22.10310      -10.87459
C         -9.51757       21.13708      -10.00303
H         -2.79718        1.88004       -2.18307
H          1.10792       -1.22463       -2.64438
H          0.04412       -2.25101       -4.61207
H         -1.75031       -2.26923       -6.29224
H         -3.64635       -0.68544       -6.12340
H         -3.78017        0.89800       -4.24625
H          2.68110        3.18695        0.06795
H          1.83126        5.22540        2.01654
H         -0.72448        7.42037       -0.63877
H         -1.55536        5.50859       -5.14124
H          1.12893        3.21009       -2.71295
H         -2.10251        7.64743       -3.50048
H          0.90209        8.11558       -2.92199
H         -1.06458       10.04378       -1.31930
H         -1.50782       12.43982       -1.60505
H          0.26965        8.54392       -5.74692
H          0.68612        9.70152       -7.88084
H          0.41146       12.18315       -7.95469
H          0.86551       14.48910       -3.10752
H         -2.30256       16.98748       -4.62305
H         -6.14036       14.39039       -6.70399
H         -3.79474       12.44101       -3.66005
H         -3.94713       17.10542       -6.27442
H         -3.80572       14.99827       -8.51863
H         -2.60695       16.95117       -9.49802
H         -8.30800       19.26078       -8.48694
H         -5.34781       21.36803      -11.91525
H         -7.21666       22.74476      -12.68075
H         -9.57405       23.42725      -12.51096
H        -11.05858       22.40842      -10.80736
H        -10.18622       20.69919       -9.26419
