90

C         -4.58622        3.45422       -6.06238
C         -4.50894        2.14841       -6.40436
C         -5.16595        1.63003       -7.55722
N         -5.71383        1.21663       -8.49259
C         -3.85902        1.19544       -5.56672
N         -3.32186        0.44080       -4.86856
C         -5.36762        4.50620       -6.75753
C         -5.76774        5.45105       -5.80242
C         -6.50189        6.58186       -6.10550
C         -6.74749        6.84964       -7.45424
C         -6.25940        5.96086       -8.45852
C         -5.60223        4.76560       -8.09770
C         -6.40070        6.32408       -9.80505
C         -7.02156        7.52358      -10.16004
C         -7.53976        8.36250       -9.17730
C         -7.40877        8.02537       -7.83105
C         -5.10606        5.17897       -4.51664
O         -5.28262        5.77392       -3.47645
C         -4.13384        4.07001       -4.80605
C         -2.94133        3.94453       -4.20299
C         -2.44933        4.77953       -3.15135
C         -3.03902        4.99189       -1.80325
N         -2.37612        5.76728       -0.99120
C         -1.30479        6.13642       -1.73704
C         -1.35509        5.53483       -3.04736
C         -0.14773        5.96152       -3.82609
S          0.18640        5.68321       -5.42926
C          0.61966        6.74398       -2.80003
C         -0.18637        6.83589       -1.59781
N          0.45698        7.53050       -0.62407
C          1.59910        7.81197       -1.18250
C          1.78560        7.34335       -2.57406
C          2.94775        7.41434       -3.35792
O          3.31397        6.41917       -4.24107
C          4.49272        6.75262       -4.81724
C          4.93495        7.95781       -4.33639
C          3.93503        8.39581       -3.43391
S          3.94837        9.95204       -2.63355
C          3.20334       10.89955       -3.82017
C          2.64218       10.46192       -5.12376
N          2.24181       11.39905       -5.93511
C          2.50504       12.52620       -5.23046
C          3.03296       12.21586       -3.91973
C          3.27937       13.49741       -3.18495
S          3.66966       13.73448       -1.58587
C          3.00248       14.51361       -4.25226
C          2.50865       13.83792       -5.42827
N          2.25817       14.71912       -6.43032
C          2.61377       15.85550       -5.90189
C          3.10178       15.81657       -4.49845
C          3.56962       16.93599       -3.74350
C          4.80388       17.08939       -3.23666
C          5.37084       18.14825       -2.36586
C          4.94869       19.43146       -2.24828
C          5.63165       20.40663       -1.46338
N          6.18207       21.21001       -0.83643
C          3.82282       19.93517       -2.96177
N          2.90154       20.33655       -3.54967
C          6.61162       17.57230       -1.75918
C          6.89808       16.35962       -2.40003
C          5.86923       16.03907       -3.38934
O          5.90781       15.10207       -4.16047
C          7.98010       15.55284       -2.08759
C          8.83185       15.96625       -1.06207
C          8.56517       17.18233       -0.37252
C          7.44861       17.97330       -0.72617
C          9.42649       17.57107        0.66427
C         10.52405       16.78280        1.01693
C         10.77891       15.59405        0.33899
C          9.93808       15.18686       -0.69605
H         -6.78713        7.27535       -5.31929
H         -5.22194        4.10710       -8.87426
H         -5.99976        5.69102      -10.59424
H         -7.09519        7.80644      -11.20724
H         -8.02947        9.29185       -9.45733
H         -7.80277        8.70561       -7.07831
H         -2.20324        3.24739       -4.59746
H         -3.97816        4.48379       -1.53821
H          2.40933        8.34548       -0.66603
H          4.87616        6.04450       -5.53995
H          5.84329        8.46519       -4.63251
H          2.56280        9.39811       -5.37853
H          2.58616       16.81582       -6.43825
H          2.79350       17.68028       -3.59430
H          8.13552       14.61914       -2.62084
H          7.26446       18.87875       -0.15673
H          9.25152       18.49521        1.21204
H         11.18004       17.09765        1.82479
H         11.63270       14.98114        0.61680
H         10.15348       14.25272       -1.21092
