96

C          0.20131       11.75802       -2.62993
C         -0.68382       12.66115       -2.14226
C         -0.28805       13.92249       -1.61248
N          0.03385       14.95046       -1.18141
C         -2.09275       12.45190       -2.19756
N         -3.23721       12.26805       -2.24750
C          1.67495       11.95253       -2.77591
C          2.14446       11.04324       -3.72733
C          3.47129       10.95312       -4.13023
C          4.39884       11.83526       -3.53366
C          3.94146       12.73658       -2.55934
C          2.58345       12.80121       -2.15363
S          5.23639       13.71351       -1.96168
C          6.35480       12.97020       -2.98358
C          5.81135       11.97906       -3.75568
Br         8.16205       13.45762       -3.05338
C          1.05620       10.17482       -4.19861
O          1.12383        9.41291       -5.13873
C         -0.11718       10.48414       -3.31447
C         -1.13104        9.63045       -3.10150
C         -1.21880        8.35627       -3.72452
S         -2.15257        8.19888       -5.20667
C         -1.83918        6.56973       -5.17051
C         -1.07389        6.21186       -4.08203
N         -0.72775        7.22286       -3.22977
C         -0.82046        4.71973       -4.03079
C         -1.60508        4.31041       -5.27489
C         -2.16154        5.40770       -5.90401
S         -3.02649        5.05988       -7.27474
C         -2.71466        3.34850       -7.07803
C         -1.92800        3.10856       -5.94821
C         -3.26968        2.45992       -8.04628
C         -3.64172        1.20765       -7.73899
C         -4.26835        0.32228       -8.70904
C         -5.12570       -0.67059       -8.42280
C         -5.78190       -1.50589       -9.40310
C         -6.75637       -2.27535       -8.89113
C         -6.94925       -2.10117       -7.45944
S         -5.68792       -1.04710       -6.81724
C         -7.94312       -2.60136       -6.69860
C         -9.04243       -3.44329       -7.13449
C         -9.94084       -3.70693       -6.17255
C         -9.62742       -3.09575       -4.89841
S         -8.11054       -2.24552       -4.97484
C        -10.41008       -3.15524       -3.81194
C        -10.12867       -2.51183       -2.53443
N         -9.42775       -3.21185       -1.62915
C         -9.24414       -2.61181       -0.43973
C         -9.74958       -1.37218       -0.12405
C        -10.47261       -0.74569       -1.11708
N        -10.67572       -1.30306       -2.32962
C        -11.08431        0.57166       -0.86903
C        -11.77228        1.23650       -1.81014
C        -12.39287        2.52488       -1.59812
C        -13.11506        3.21124       -2.49571
C        -13.52790        2.94284       -3.87842
C        -14.09909        1.80619       -4.35461
C        -14.56080        1.68824       -5.69740
N        -14.93143        1.59441       -6.79361
C        -14.40108        0.69198       -3.51888
N        -14.68943       -0.21663       -2.85708
C        -13.49455        4.25910       -4.57684
C        -13.46584        5.26516       -3.60393
C        -13.31756        4.67799       -2.25874
O        -13.28767        5.27984       -1.20636
C        -13.47014        6.62313       -3.89606
C        -13.46543        6.99961       -5.25901
C        -13.44846        5.99345       -6.23898
C        -13.46259        4.61267       -5.91932
S        -13.39841        6.67296       -7.82731
C        -13.40648        8.24823       -7.22350
C        -13.44989        8.30719       -5.85634
Br       -13.35214        9.76525       -8.32088
H          3.77660       10.22099       -4.87316
H          2.30489       13.50192       -1.37434
H          6.37778       11.38382       -4.46203
H         -1.90086        9.82118       -2.36377
H         -1.23837        4.27042       -3.12663
H          0.24330        4.49163       -4.13766
H         -1.60551        2.12063       -5.64221
H         -3.45888        2.84966       -9.04378
H         -3.52625        0.83228       -6.72398
H         -4.03653        0.52735       -9.75279
H         -5.52062       -1.48399      -10.45273
H         -7.35981       -2.93974       -9.49369
H         -9.13803       -3.81666       -8.14443
H        -10.82790       -4.30718       -6.32447
H        -11.35389       -3.68656       -3.82869
H         -8.66553       -3.18116        0.28188
H         -9.58958       -0.93184        0.85080
H        -10.96464        0.98530        0.12770
H        -11.83459        0.79792       -2.80206
H        -12.15894        3.00827       -0.64718
H        -13.44402        7.36311       -3.10079
H        -13.42248        3.88381       -6.72183
H        -13.45843        9.23200       -5.29201
