93

C        -19.09312       -0.77660       -0.56857
C        -20.22937       -1.01557        0.13541
C        -20.69269       -2.32627        0.45444
N        -21.08286       -3.38286        0.71885
C        -21.10859        0.01840        0.57324
N        -21.83634        0.85072        0.92670
C        -18.20032       -1.81971       -1.17701
C        -17.30475       -1.19166       -2.04424
C        -16.36309       -1.86238       -2.82183
C        -16.36726       -3.27367       -2.78648
C        -17.25267       -3.91722       -1.91084
C        -18.14650       -3.20694       -1.06767
S        -17.11667       -5.63564       -2.03978
C        -15.99803       -5.51391       -3.29713
C        -15.61810       -4.22468       -3.56127
Br       -15.35345       -7.00188       -4.23823
C        -17.54252        0.25586       -2.08338
O        -17.04869        1.00864       -2.89838
C        -18.57600        0.54395       -1.02132
C        -18.85649        1.79360       -0.60292
C        -18.26603        3.02781       -1.09785
C        -16.99057        3.41330       -0.94805
C        -16.37521        4.51616       -1.65169
C        -15.04288        4.37749       -1.75938
C        -14.55440        3.16181       -1.12872
S        -15.79362        2.54556       -0.02725
C        -13.44447        2.46786       -1.44040
C        -12.47764        2.76968       -2.47720
C        -11.65433        1.74507       -2.76225
C        -11.87682        0.56645       -1.94518
S        -13.08738        0.90631       -0.73226
C        -11.26783       -0.62414       -2.12651
C        -11.51950       -1.78775       -1.31978
S        -11.32743       -1.65986        0.41432
C        -12.20507       -3.09292        0.72106
C        -12.41647       -3.77285       -0.45618
C        -11.82647       -3.11620       -1.61567
C        -11.73058       -3.78244       -2.86038
S        -10.83864       -3.20595       -4.26132
C        -12.26695       -5.09491       -2.83420
C        -12.89996       -5.68215       -1.69984
C        -13.01497       -5.03775       -0.46213
C        -12.46938       -3.47675        2.06187
C        -11.64768       -4.36679        2.63580
C        -11.89806       -4.87232        3.93828
O        -13.09136       -4.68265        4.59850
C        -12.99553       -5.25647        5.81863
C        -11.76301       -5.84317        5.97470
N        -11.32628       -6.34538        7.22744
O        -11.18865       -5.50691        8.12843
O        -11.19413       -7.56680        7.34900
C        -11.05428       -5.62756        4.76407
N         -9.75636       -5.88751        4.44625
C         -8.96708       -6.97360        4.69429
C         -9.23859       -8.31998        4.85895
C         -8.03281       -9.10245        5.04363
N         -8.01969      -10.45763        5.20838
C         -9.28014      -10.96178        5.17548
C        -10.46354      -10.22010        4.99051
C        -11.76841      -10.98670        4.99449
C        -13.02022      -10.12448        5.02975
N        -10.49042       -8.86794        4.79472
C         -6.86750       -8.36060        4.98256
S         -7.26253       -6.70783        4.70788
C         -5.52277       -8.82838        5.11758
C         -4.44416       -8.17518        4.66549
H        -15.69288       -1.31221       -3.47705
H        -18.78623       -3.78202       -0.41028
H        -14.88156       -3.95150       -4.30767
H        -19.58620        1.99195        0.17352
H        -18.93867        3.63718       -1.69833
H        -16.94425        5.30625       -2.11944
H        -14.41053        5.05362       -2.31564
H        -12.46136        3.70783       -3.00663
H        -10.90769        1.78056       -3.54359
H        -10.58931       -0.72151       -2.96590
H         -9.75639       -2.80839       -3.57295
H        -12.18805       -5.71381       -3.72963
H        -13.29553       -6.69446       -1.78722
H        -13.48298       -5.51234        0.39255
H        -13.34537       -3.07241        2.55909
H        -10.77900       -4.73617        2.09614
H        -13.84951       -5.11768        6.46632
H         -9.28118       -5.18242        3.88257
H         -9.32584      -12.04119        5.30425
H        -11.78040      -11.64365        5.87352
H        -11.79819      -11.62830        4.10549
H        -13.01300       -9.44676        5.88931
H        -13.90905      -10.75926        5.10709
H        -13.11229       -9.52401        4.11910
H         -5.38404       -9.80075        5.58832
H         -4.49219       -7.22027        4.15371
H         -3.45649       -8.60964        4.78833
