112

C         -2.42646        1.05751        1.48620
C         -1.69605        0.67376        0.40943
C         -0.96155       -0.54519        0.36310
N         -0.35879       -1.53473        0.31459
C         -1.64004        1.42794       -0.79807
N         -1.58903        2.03981       -1.78338
C         -2.64507        0.25913        2.73869
C         -3.68894        0.84436        3.45467
C         -4.18439        0.37010        4.66516
C         -3.56745       -0.76534        5.22487
C         -2.51675       -1.37174        4.52059
C         -2.04558       -0.87927        3.27195
S         -1.91509       -2.74693        5.37978
C         -2.99658       -2.50742        6.65395
C         -3.83157       -1.43987        6.46478
Br        -3.04415       -3.59211        8.18024
C         -4.19415        2.03652        2.77490
O         -5.16939        2.65386        3.14656
C         -3.28829        2.26629        1.59413
C         -3.26732        3.42137        0.90284
C         -4.12899        4.51266        1.20804
S         -5.66849        4.64209        0.46956
C         -6.11876        5.99263        1.43714
C         -5.05150        6.41922        2.21748
C         -3.88897        5.58026        2.05293
C         -2.60976        5.81947        2.79960
C         -2.51357        7.25121        3.32180
C         -3.79736        7.64447        4.06987
N         -3.62235        8.97311        4.67254
C         -5.03980        7.61250        3.14144
C         -7.45919        6.47440        1.36112
C         -7.80680        7.42212        0.47783
C         -9.16566        7.92042        0.31943
C         -9.50745        9.09052       -0.24389
C        -10.85959        9.49228       -0.56600
C        -10.91369       10.53389       -1.41255
C         -9.60175       11.02449       -1.79840
S         -8.37680       10.32566       -0.73937
C         -9.29299       11.69649       -2.92242
C        -10.18586       11.92272       -4.04583
C         -9.53305       11.89789       -5.22088
C         -8.09976       11.73117       -5.06435
S         -7.64403       12.06670       -3.41142
C         -7.26698       11.28020       -6.01569
C         -5.88321       11.03784       -5.77153
S         -4.72808       12.25671       -6.14689
C         -3.40232       11.32276       -5.58321
C         -3.86270       10.13230       -5.03770
C         -5.27114        9.91440       -5.23781
C         -5.94784        8.63238       -4.80299
C         -4.95394        7.55135       -4.34284
C         -3.85568        8.17085       -3.46766
N         -2.99930        7.13845       -2.88332
C         -3.01849        9.10973       -4.33665
C         -2.06217       11.82264       -5.69566
C         -1.05032       10.96682       -5.91751
C          0.35298       11.28601       -5.98763
C          1.28184       10.63925       -6.71146
C          1.22564        9.57422       -7.72902
C          0.61871        8.36468       -7.66380
C          0.64501        7.41767       -8.72756
N          0.64444        6.64903       -9.59622
C          0.02491        7.85988       -6.46974
N         -0.41885        7.37672       -5.52073
C          2.26650        9.92492       -8.74305
C          3.12703       10.86541       -8.16723
C          2.61185       11.31225       -6.86232
O          3.14152       12.10427       -6.11212
C          4.27288       11.34802       -8.78541
C          4.56707       10.87120      -10.08232
C          3.68276        9.96322      -10.68560
C          2.51794        9.48433      -10.03647
S          4.21566        9.53558      -12.27272
C          5.58067       10.51899      -12.14772
C          5.66885       11.17876      -10.95150
Br         6.84604       10.69297      -13.51740
H         -5.01020        0.87424        5.16104
H         -1.23068       -1.40675        2.79057
H         -4.59128       -1.13074        7.17321
H         -2.54874        3.62420        0.11814
H         -1.74847        5.62024        2.15091
H         -2.55245        5.11606        3.64031
H         -2.34280        7.93864        2.48243
H         -1.63904        7.32780        3.98023
H         -3.95526        6.92817        4.88691
H         -3.44441        9.65724        3.93585
H         -2.78409        8.97368        5.25386
H         -5.06457        8.51552        2.51783
H         -5.94706        7.61831        3.75880
H         -8.18357        6.05219        2.05145
H         -7.05321        7.82385       -0.19828
H         -9.95767        7.23671        0.62110
H        -11.73106        8.96371       -0.20695
H        -11.83341       10.94281       -1.80524
H        -11.26149       11.97422       -3.95763
H        -10.01572       11.93724       -6.18711
H         -7.64909       11.01603       -6.99597
H         -6.54967        8.22883       -5.62571
H         -6.62765        8.85073       -3.97163
H         -4.50147        7.07025       -5.22334
H         -5.48842        6.76473       -3.79863
H         -4.31086        8.74455       -2.65167
H         -2.57447        6.58054       -3.62650
H         -3.56733        6.50335       -2.32655
H         -2.53774        8.51785       -5.11794
H         -2.24445        9.59408       -3.72988
H         -1.89286       12.89386       -5.63125
H         -1.28821        9.92457       -6.03685
H          0.65146       12.17449       -5.42587
H          4.90898       12.07321       -8.28563
H          1.86958        8.79668      -10.56778
H          6.47386       11.85591      -10.69263
