103

C        -12.66240        2.46784      -14.73178
C        -14.00424        2.29454      -14.69505
C        -14.85675        2.70093      -15.76277
N        -15.55143        3.04440      -16.62566
C        -14.65275        1.64617      -13.60309
N        -15.17488        1.13863      -12.69926
C        -11.86015        3.03622      -15.85404
C        -10.53861        2.60121      -15.70796
C         -9.49120        3.00906      -16.52163
C         -9.78033        3.95540      -17.52934
C        -11.10438        4.39763      -17.68521
C        -12.16668        3.94259      -16.86220
S        -11.22268        5.55810      -18.96174
C         -9.56287        5.49569      -19.26016
C         -8.89727        4.61566      -18.45051
Br        -8.71473        6.53669      -20.56601
C        -10.39223        1.79326      -14.48715
O         -9.43727        1.10983      -14.18677
C        -11.67454        1.99760      -13.73856
C        -11.74909        2.03859      -12.39874
C        -10.61353        1.87490      -11.56166
O         -9.83066        2.94313      -11.12343
C        -10.08160        0.76950      -10.96832
C        -10.28595       -0.64065      -10.85393
O        -11.15860       -1.31274      -11.37124
N         -9.30298       -1.05216       -9.98021
C         -8.51921       -0.02947       -9.48806
O         -7.65376       -0.13381       -8.64280
C         -9.01034        1.14453      -10.15444
C         -8.83083        2.50301      -10.24550
C         -7.92163        3.40699       -9.62426
C         -6.90433        2.98436       -8.86103
C         -5.99150        3.84371       -8.14469
C         -4.76757        3.49001       -7.69695
C         -4.10365        2.15750       -7.93476
C         -3.94575        4.45914       -6.87935
N         -3.07673        5.21464       -7.75516
C         -3.40291        6.39456       -8.37204
C         -2.66067        7.08134       -9.24969
C         -3.03414        8.38475       -9.84088
C         -4.34246        8.83145      -10.12927
C         -4.60758       10.11455      -10.71811
N         -5.88625       10.51467      -10.90545
C         -6.90125        9.70016      -10.52820
C         -6.64560        8.45295       -9.99387
N         -5.37759        8.02657       -9.81612
C         -7.72548        7.50205       -9.58693
C         -8.29468       10.22713      -10.68115
C         -3.57535       11.00313      -11.09887
C         -2.24834       10.62770      -10.75382
C         -1.97166        9.28495      -10.13533
N         -0.65987        9.08272       -9.90860
S          0.13942       10.45105      -10.36480
N         -1.12944       11.36170      -10.91027
C         -3.87615       12.30373      -11.74487
C         -3.22259       13.06733      -12.63582
C         -3.77245       14.44921      -12.87154
O         -4.88407       14.86979      -12.62707
C         -2.65395       15.23400      -13.41446
C         -2.65884       16.59756      -13.65720
C         -1.46481       17.19596      -14.07087
C         -0.28237       16.40647      -14.18892
C          0.91483       17.03273      -14.56181
C          0.93574       18.39658      -14.83591
C         -0.21581       19.16638      -14.74666
C         -1.41457       18.56876      -14.35897
F          2.08761       18.97642      -15.19750
C         -0.32556       15.01739      -13.94220
C         -1.52915       14.41868      -13.59636
C         -1.94489       13.00594      -13.35959
C         -1.39038       11.92817      -13.96507
C         -0.18905       12.00167      -14.72652
N          0.79660       12.06246      -15.33712
C         -2.01856       10.64783      -13.95611
N         -2.52165        9.60388      -13.95300
H         -8.47785        2.66292      -16.33706
H        -13.15826        4.35865      -17.00539
H         -7.82725        4.44886      -18.48854
H        -12.65644        2.34676      -11.89146
H         -9.21833       -1.99838       -9.65424
H         -8.07766        4.46537       -9.80347
H         -6.73366        1.92720       -8.71847
H         -6.34830        4.85117       -7.93965
H         -4.70391        1.45927       -8.52277
H         -3.88081        1.66840       -6.98082
H         -3.16433        2.30078       -8.47876
H         -3.34211        3.91874       -6.14158
H         -4.59186        5.13413       -6.30417
H         -2.17555        4.80732       -7.97943
H         -4.37777        6.76077       -8.05923
H         -1.68853        6.68853       -9.53676
H         -8.44622        7.98243       -8.91928
H         -7.29755        6.65487       -9.04407
H         -8.24263        7.11386      -10.46915
H         -8.28741       11.22871      -11.12196
H         -8.78078       10.29752       -9.70218
H         -8.88440        9.57266      -11.32986
H         -4.83440       12.69859      -11.38962
H         -3.57073       17.17093      -13.51365
H          1.84191       16.47291      -14.65161
H         -0.17321       20.22644      -14.97634
H         -2.30998       19.18350      -14.28757
H          0.59172       14.44107      -14.02414
