78

C          2.70873        1.14620       -2.91416
C          2.04979        0.07461       -3.50571
N          1.86949       -1.17669       -2.98160
C          2.35336       -1.50770       -1.74083
C          3.04391       -0.50705       -1.01073
C          3.21886        0.85428       -1.63530
N          3.89444        1.71369       -0.85658
S          4.27445        0.89316        0.53448
N          3.60715       -0.58984        0.20949
C          2.13941       -2.86361       -1.24280
C          2.01124       -3.32787        0.06975
C          1.82575       -4.72645        0.10562
C          1.81986       -5.26526       -1.16029
S          2.02454       -4.17181       -2.38982
C          1.63484       -6.65917       -1.06374
C          1.52874       -7.00435        0.26192
C          1.63136       -5.79706        1.08535
C          1.55079       -5.69438        2.42581
C          1.34312       -6.83159        3.25255
N          1.17396       -7.75861        3.92930
C          1.65945       -4.43949        3.08913
N          1.74532       -3.42113        3.63268
C          1.35514       -8.39497        0.41865
C          1.32660       -9.07053       -0.81302
S          1.50413       -7.91847       -2.13068
C          1.14801      -10.48227       -1.07252
C          1.74623      -11.05116       -2.14039
C          1.62403      -12.45330       -2.43700
C          0.88833      -13.37922       -1.57054
C          0.23494      -13.01518       -0.46953
S          0.14203      -11.36812        0.08002
C          1.02651      -14.65960       -2.14233
C          1.76870      -14.57097       -3.29586
C          1.98018      -15.81215       -3.91646
C          1.37312      -16.81752       -3.17474
S          0.56107      -16.21702       -1.76154
C          2.14021      -13.18626       -3.46694
C          2.94559      -12.69357       -4.55696
C          4.15157      -12.12717       -4.38749
C          4.89926      -11.63268       -5.49392
C          4.45116      -11.09798       -6.70533
C          5.52398      -10.69775       -7.52470
C          6.73733      -10.94936       -6.92493
S          6.64200      -11.62761       -5.41228
C          7.76612      -10.51921       -7.78843
C          7.20093       -9.98937       -8.92540
C          5.74626      -10.07594       -8.83016
C          4.83449       -9.67214       -9.73505
C          5.21174       -9.07019      -10.96442
N          5.52369       -8.57294      -11.96702
C          3.44186       -9.83147       -9.50411
N          2.30524       -9.96274       -9.31867
C          8.17782       -9.52108       -9.82427
C          9.46682       -9.72084       -9.32585
S          9.42349      -10.49392       -7.76292
C         10.75365       -9.36627       -9.92458
C         11.90943       -9.03269       -9.20332
N         13.13347       -8.64838       -9.69479
C         13.34216       -8.55027      -11.03780
C         12.27562       -8.86642      -11.90067
C         10.94355       -9.29019      -11.33074
N         10.04759       -9.56547      -12.29804
S         10.79279       -9.29414      -13.75292
N         12.30074       -8.83017      -13.24255
H          2.82076        2.11020       -3.38884
H          1.61356        0.19671       -4.49747
H          2.04993       -2.66687        0.92728
H          1.25118       -8.91792        1.36234
H          2.37117      -10.47481       -2.81444
H         -0.28464      -13.75479        0.13108
H          2.54597      -15.99024       -4.82160
H          1.36671      -17.88033       -3.37501
H          2.52006      -12.83485       -5.54795
H          4.58242      -12.04533       -3.39071
H          3.39802      -10.99920       -6.93718
H          7.98831       -9.05099      -10.78197
H         11.89304       -9.04748       -8.11292
H         14.31878       -8.23138      -11.37545
