80

C          0.46346       -2.85215        2.17696
C         -0.31372       -2.78055        1.02725
C         -0.57737       -1.43511        0.69399
C          0.00124       -0.56527        1.59408
S          0.85294       -1.29283        2.82284
C         -0.29991        0.75759        1.20849
C         -1.06436        0.72668        0.06450
C         -1.28868       -0.66667       -0.32886
C         -1.98821       -1.13692       -1.38038
C         -2.63156       -0.26778       -2.30202
N         -3.15343        0.43729       -3.06252
C         -2.11741       -2.53042       -1.62757
N         -2.22090       -3.67031       -1.83025
C         -1.39255        2.02868       -0.37018
C         -0.86599        3.00697        0.48035
S          0.02898        2.27623        1.78817
C         -0.98077        4.46965        0.41031
C         -0.01267        5.37831        0.88449
C         -0.14699        6.79241        0.79819
C         -1.25679        7.46990        0.23020
C         -2.24132        6.56511       -0.26107
C         -2.10893        5.10059       -0.16777
N         -3.21381        4.55689       -0.70075
O         -3.99710        5.60265       -1.13038
N         -3.41415        6.82097       -0.86279
C         -1.38492        8.93435        0.14959
C         -2.07444        9.62959       -0.87597
C         -2.19403       11.04615       -0.95590
C         -1.63997       11.93867       -0.01236
C         -0.93833       11.28745        1.02953
C         -0.81017        9.82146        1.10574
N         -0.08726        9.54231        2.20225
O          0.22402       10.74686        2.79042
N         -0.30029       11.80784        2.08885
C         -1.75488       13.40294       -0.07767
C         -0.88472       14.40091        0.38012
C         -1.38191       15.69671        0.09925
C         -2.59146       15.63731       -0.55325
S         -3.16913       14.10708       -0.81981
C         -3.03310       16.94756       -0.83423
C         -2.10628       17.84483       -0.35419
C         -1.00628       17.10404        0.27850
C          0.08933       17.60074        0.88843
C          0.31052       19.00069        0.99806
N          0.49148       20.14540        1.08383
C          1.08303       16.75402        1.45193
N          1.90444       16.06676        1.90513
C         -2.49549       19.17862       -0.62642
C         -3.71696       19.23139       -1.31117
S         -4.34630       17.62532       -1.59307
C         -4.46063       20.36736       -1.77639
C         -4.21772       20.82521       -3.02115
C         -4.93000       21.95286       -3.56975
C         -5.98997       22.64660       -2.82467
C         -6.36021       22.33900       -1.58241
S         -5.63079       21.05237       -0.65832
C         -6.48854       23.65386       -3.67610
C         -5.81227       23.62254       -4.87199
C         -6.25030       24.59914       -5.78248
C         -7.27475       25.34656       -5.21522
S         -7.66034       24.84181       -3.59863
C         -4.83208       22.56199       -4.78946
C         -3.93265       22.21892       -5.86297
C         -2.59791       22.22991       -5.75130
H          0.82630       -3.74019        2.67746
H         -0.64532       -3.66541        0.49801
H         -1.97899        2.27314       -1.24837
H          0.90424        5.00104        1.34029
H          0.68448        7.37466        1.20038
H         -2.55000        9.06369       -1.67988
H         -2.74486       11.44208       -1.81093
H          0.05313       14.17371        0.87474
H         -1.94906       20.07526       -0.35848
H         -3.48482       20.34166       -3.65967
H         -7.14883       22.90293       -1.09292
H         -5.86563       24.76725       -6.78006
H         -7.82321       26.16782       -5.65701
H         -4.39176       21.96729       -6.81630
H         -2.10242       22.50982       -4.82596
H         -1.96764       21.97291       -6.59657
