104

C         -2.90878       -4.94780        3.64521
C         -3.33325       -3.93549        4.53655
C         -3.97219       -4.32410        5.82052
O         -4.93485       -3.73367        6.27296
O         -3.40379       -5.38153        6.43265
C         -3.23460       -2.56894        4.17663
C         -3.65728       -1.50324        5.04207
N         -3.94962       -0.58575        5.68898
C         -2.67374       -2.20928        2.94198
C         -2.25733       -3.22125        2.09605
C         -2.38692       -4.58571        2.40892
C         -1.89344       -5.35722        1.23631
C         -2.31473       -6.58829        0.85262
C         -3.14481       -7.40752        1.67594
N         -3.80094       -8.05000        2.38073
C         -2.07434       -7.06470       -0.46820
N         -1.96703       -7.43584       -1.56167
C         -1.08113       -4.41837        0.44546
C         -1.55062       -3.04518        0.81096
O         -1.33153       -1.99295        0.24851
C          0.12815       -4.49061       -0.13976
C          1.09437       -5.61156       -0.12393
C          1.37366       -6.39253        1.02331
O          0.67531       -6.00382        2.14049
C          0.92370       -6.59026        3.40371
C          2.29475       -7.46288        0.93757
O          2.44272       -8.26405        2.05047
C          3.78186       -8.36522        2.54146
C          2.91445       -7.79551       -0.30312
C          2.73599       -6.89668       -1.36740
C          1.85671       -5.81636       -1.27880
C          3.57784       -9.11080       -0.54796
C          4.72973       -9.32567       -1.33874
O          5.36221       -8.21789       -1.86264
C          5.53516       -8.25416       -3.27810
C          5.29978      -10.62313       -1.44448
O          6.39743      -10.79448       -2.26139
C          6.05107      -11.61076       -3.38762
C          4.82752      -11.69536       -0.65110
C          3.62489      -11.48296        0.03333
C          2.98784      -10.24859        0.02659
C          5.62417      -12.91576       -0.31284
C          5.04210      -14.18818       -0.05960
O          3.74248      -14.32479       -0.50548
C          2.86543      -15.20358        0.18860
C          5.79520      -15.21958        0.56678
O          5.10079      -16.34931        0.91631
C          5.66075      -17.63386        0.69768
C          7.14091      -14.98239        0.93379
C          7.73881      -13.77454        0.57193
C          6.98993      -12.75643       -0.01714
C          7.96943      -15.96353        1.64777
C          8.15116      -16.12779        2.96804
C          8.59149      -17.49646        3.38184
O          9.16287      -18.34100        2.72586
C          8.08253      -17.67126        4.74947
C          7.48093      -16.49272        5.22215
C          6.90060      -16.51657        6.48429
C          6.98050      -17.69219        7.27900
C          7.58793      -18.85805        6.75984
C          8.14619      -18.84591        5.47751
C          7.66680      -20.08191        7.49815
N          7.80904      -21.01465        8.16409
C          6.36370      -17.60461        8.63417
O          5.40665      -16.87436        8.83380
O          6.95420      -18.29141        9.62825
C          7.73354      -15.42760        4.19310
C          8.00034      -14.14459        4.52103
C          8.90966      -13.37270        3.74074
N          9.74185      -12.78188        3.18498
C          7.62996      -13.54880        5.76775
N          7.32462      -13.09357        6.78473
H         -3.01797       -5.99092        3.92518
H         -2.57945       -5.73961        6.05899
H         -2.55183       -1.16807        2.64912
H          0.54172       -3.58192       -0.58288
H          0.29942       -6.06035        4.13021
H          1.96323       -6.45109        3.70958
H          0.60827       -7.63734        3.42478
H          3.72269       -8.42125        3.63382
H          4.40708       -7.50850        2.27409
H          4.24307       -9.29802        2.20767
H          3.22891       -7.06197       -2.32120
H          1.74443       -5.16887       -2.14667
H          5.50309       -7.22138       -3.64122
H          4.73673       -8.80690       -3.78512
H          6.51810       -8.65670       -3.53733
H          5.11276      -11.28669       -3.85438
H          5.98768      -12.66700       -3.11058
H          6.84597      -11.50618       -4.13259
H          3.19097      -12.25739        0.66093
H          2.05747      -10.16614        0.58640
H          2.86407      -16.18452       -0.29689
H          1.85286      -14.79529        0.11579
H          3.08780      -15.27789        1.25772
H          6.02428      -18.02607        1.65141
H          4.84864      -18.29392        0.37248
H          6.43839      -17.65722       -0.06972
H          8.79089      -13.58330        0.77511
H          7.48124      -11.79876       -0.19196
H          8.36357      -16.72151        0.96789
H          6.38788      -15.64628        6.89323
H          8.62480      -19.72513        5.04931
H          7.75464      -18.82825        9.48081
