96

C         -2.16427        2.55310       -1.49933
C         -3.38100        3.24380       -1.58718
C         -3.95647        3.85377       -0.46007
C         -3.31474        3.80171        0.77403
C         -2.11286        3.11723        0.83725
C         -1.53304        2.46838       -0.26810
C         -0.27356        1.81983        0.18825
C          0.27755        0.70718       -0.34844
C         -0.18747        0.12501       -1.56621
N         -0.56317       -0.34947       -2.54909
C          1.30247       -0.03611        0.30938
N          2.13224       -0.65923        0.82434
C          0.05098        2.43325        1.48407
C         -1.21553        3.04792        2.00270
O         -1.43769        3.47795        3.11470
C          1.17767        2.76908        2.12956
C          2.49711        2.63183        1.61473
C          2.97930        2.69603        0.30280
C          4.36810        2.46155        0.24885
C          4.90197        2.35839        1.50923
S          3.80753        2.44058        2.75032
C          6.29876        2.23939        1.39969
C          6.65628        2.24649        0.07299
C          5.44199        2.34662       -0.74084
C          5.31760        2.28089       -2.08096
C          6.44474        2.14089       -2.93244
N          7.36418        2.02542       -3.63240
C          4.03393        2.29674       -2.69749
N          2.96653        2.29779       -3.15412
C          8.06171        2.16990       -0.07595
C          8.71826        2.09913        1.16507
S          7.55440        2.17617        2.46792
C         10.17447        2.03796        1.47717
C         11.16356        2.67353        0.69163
C         12.57388        2.61877        1.02754
N         13.45682        3.29320        0.25970
C         13.02173        3.95023       -0.83179
C         11.69237        3.98514       -1.15830
N         10.76034        3.36669       -0.40028
F         11.28106        4.65252       -2.24479
F         13.93064        4.57328       -1.59418
C         13.07746        1.89195        2.13888
C         12.10938        1.23291        2.94587
C         10.64088        1.31191        2.61782
N          9.89811        0.62505        3.50406
S         10.90032       -0.02302        4.63444
N         12.34997        0.48374        4.03737
C         14.51790        1.78484        2.51073
C         15.13039        1.66324        3.77065
C         16.54308        1.66813        3.67303
C         16.94976        1.77984        2.36499
S         15.73219        1.75035        1.25069
C         18.35292        1.88519        2.31754
C         18.84154        1.82873        3.59992
C         17.72944        1.61808        4.53198
C         17.79867        1.35399        5.85132
C         19.05343        1.25668        6.51927
N         20.09481        1.17903        7.02274
C         16.63564        1.10330        6.62761
N         15.68818        0.89776        7.26629
C         20.23540        2.03994        3.62348
C         20.76087        2.19476        2.33457
S         19.49406        2.11553        1.13522
C         22.09190        2.46511        1.89312
C         23.20385        2.07250        2.53134
C         23.45232        1.26965        3.73297
C         22.90634        0.06472        4.03046
C         23.20134       -0.64443        5.22800
N         23.42462       -1.21318        6.21492
C         22.06803       -0.62889        3.10612
N         21.41960       -1.22152        2.34858
C         24.66950        1.83887        4.37063
C         25.32371        2.62742        3.41634
C         24.48975        2.77166        2.20639
O         24.77285        3.38875        1.20123
C         26.56667        3.21047        3.62368
C         27.19209        2.98998        4.87324
C         26.50881        2.25388        5.85235
C         25.23167        1.68507        5.62944
S         27.43164        2.13626        7.30578
C         28.73902        2.99652        6.63495
C         28.48137        3.40672        5.34835
H         -1.74725        2.12281       -2.40430
H         -3.88578        3.31664       -2.55010
H         -4.89824        4.38892       -0.55796
H         -3.72140        4.29928        1.64939
H          1.08985        3.26445        3.09889
H          2.33897        2.88992       -0.54746
H          8.59318        2.18030       -1.02074
H         14.56828        1.60803        4.69614
H         20.84354        2.10555        4.51569
H         22.19343        3.11874        1.02393
H         27.04266        3.80047        2.84542
H         24.74984        1.13670        6.43159
H         29.63411        3.16602        7.21774
H         29.19213        3.97364        4.75909
