89

C          6.76268        2.84937       -6.29713
C          6.77907        3.04656       -7.65052
S          6.55568        1.54452       -8.48095
C          6.43779        0.65405       -7.01079
C          6.57810        1.49258       -5.93882
C          6.60000        1.28086       -4.51561
O          6.31169        0.26967       -3.90732
C          7.02623        2.65288       -3.99298
C          6.89864        3.65606       -5.10879
C          6.81478        5.00421       -5.02126
C          6.64417        5.82293       -6.17455
N          6.50974        6.48806       -7.11567
C          6.83749        5.69471       -3.77920
N          6.86271        6.24756       -2.75587
C          7.61898        2.81899       -2.79656
C          7.88861        1.74653       -1.90313
C          7.12159        1.27973       -0.83782
C          7.77115        0.21953       -0.17290
C          8.96728       -0.10542       -0.77358
S          9.38584        0.86513       -2.05435
C          9.50426       -1.24157       -0.13106
C          8.65798       -1.61787        0.88777
C          7.53165       -0.68739        0.94741
C          6.51999       -0.65880        1.83559
C          5.49206        0.32031        1.76623
N          4.65338        1.12034        1.70736
C          6.43887       -1.59252        2.90287
N          6.38106       -2.35485        3.77633
C          9.08556       -2.80956        1.50997
C         10.23252       -3.31575        0.89427
S         10.79508       -2.25628       -0.36931
C         10.87439       -4.58956        1.14209
C         12.20380       -4.94289        1.03823
C         12.42151       -6.36009        1.22434
N         13.64132       -6.95270        1.08210
C         14.62404       -6.05335        0.78571
C         15.97497       -6.63275        0.59429
O         16.19706       -7.83615        0.63831
C         17.09174       -5.70623        0.33091
C         16.90356       -4.39031        0.23181
C         15.56702       -3.78154        0.37320
O         15.45144       -2.56725        0.26607
C         14.42058       -4.67932        0.64976
N         13.20610       -4.06103        0.75972
C         11.26721       -7.04680        1.54715
S          9.92862       -5.96528        1.57533
C         11.08779       -8.45569        1.83391
C          9.95382       -9.24026        1.59980
C         10.17565      -10.58343        1.97318
C         11.44748      -10.76455        2.47071
S         12.36204       -9.38863        2.56744
C         11.64068      -12.13052        2.75502
C         10.48235      -12.80395        2.45550
C          9.47866      -11.87095        1.95562
C          8.22253      -12.14428        1.55129
C          7.37133      -11.12251        1.04936
N          6.68963      -10.28603        0.62849
C          7.68340      -13.46278        1.57554
N          7.23932      -14.53567        1.56965
C         10.62052      -14.18537        2.65657
C         11.90936      -14.53137        3.06642
S         12.89720      -13.09368        3.25423
C         12.53736      -15.80449        3.24151
C         11.92697      -16.95203        3.59175
C         10.43572      -17.07693        3.90537
O          9.64662      -16.25399        4.32146
C         10.18127      -18.46540        3.65171
C          9.03202      -19.20220        3.57602
S          9.40757      -20.84150        3.21129
C         11.11042      -20.52871        3.17156
C         11.36016      -19.20951        3.43123
C         12.51166      -18.34571        3.54257
C         13.79979      -18.73347        3.69546
C         14.17432      -20.10847        3.68902
N         14.47488      -21.22884        3.67964
C         14.86265      -17.81770        3.92939
N         15.72843      -17.06774        4.11248
H          6.91328        3.94760       -8.23387
H          6.29557       -0.41884       -7.01756
H          8.01555        3.77699       -2.47952
H          6.14910        1.69216       -0.59834
H          8.57672       -3.32634        2.31482
H         18.07254       -6.15624        0.21984
H         17.72363       -3.70703        0.03877
H          9.04832       -8.84691        1.15338
H          9.84227      -14.90839        2.46250
H         13.58929      -15.81272        2.96948
H          8.00917      -18.86855        3.69793
H         11.78214      -21.34737        2.95328
