67

C         -1.81196       -0.66012        2.02638
N         -0.95751       -1.49562        1.43865
C          0.13526       -1.73999        2.16337
N          0.41535       -1.21301        3.35858
C         -0.51552       -0.38969        3.82538
N         -1.65219       -0.07310        3.21206
C          1.11112       -2.67722        1.59500
C          1.38536       -2.98797        0.25592
C          2.40046       -3.97115        0.15129
C          2.84587       -4.35177        1.39468
S          2.10760       -3.60761        2.67727
C          3.85038       -5.32624        1.24901
C          4.04562       -5.59127       -0.08338
C          3.14224       -4.72906       -0.86672
C          3.02635       -4.64177       -2.20739
C          3.81468       -5.43844       -3.07498
N          4.46016       -6.10004       -3.78612
C          2.10632       -3.74498       -2.82005
N          1.35639       -3.01327       -3.32303
C          5.03828       -6.59721       -0.25807
C          5.55327       -7.06122        0.96834
S          4.83725       -6.14794        2.28450
C          6.58228       -8.11075        1.27251
C          7.67581       -8.43347        0.42894
C          8.66300       -9.45631        0.76856
N          9.67620       -9.72607       -0.08366
C          9.75229       -9.02875       -1.23580
C          8.84031       -8.04985       -1.54687
N          7.80620       -7.74693       -0.72798
F          8.96713       -7.35009       -2.68254
F         10.76016       -9.30970       -2.07367
C          8.62529      -10.18613        1.97730
C          7.51933       -9.91092        2.83561
C          6.49064       -8.87159        2.48113
N          5.52792       -8.79223        3.41827
S          5.89508       -9.82202        4.64213
N          7.24043      -10.51151        4.00699
C          9.65659      -11.18546        2.38782
C         10.45508      -12.04841        1.61662
C         11.32806      -12.82673        2.41881
C         11.18279      -12.51390        3.74668
S         10.08471      -11.33156        4.08029
C         12.08665      -13.27101        4.50972
C         12.82217      -14.07183        3.67038
C         12.37130      -13.85242        2.29006
C         12.80240      -14.46503        1.17077
C         13.81575      -15.46231        1.21045
N         14.63975      -16.27854        1.24421
C         12.25071      -14.16478       -0.10457
N         11.79806      -13.92726       -1.14640
C         13.77163      -14.82499        4.39752
C         13.70304      -14.54816        5.77067
S         12.46052      -13.38044        6.11779
C         14.51168      -15.08894        6.87024
N         15.46373      -15.95885        6.53093
C         16.17252      -16.40791        7.56309
N         16.00386      -16.07120        8.84071
C         15.02376      -15.19647        9.04648
N         14.24613      -14.66788        8.10964
H         -2.72866       -0.43394        1.49184
H         -0.33092        0.06244        4.79415
H          0.86147       -2.50293       -0.56068
H          5.36990       -6.98605       -1.21341
H         10.39844      -12.08547        0.53504
H         14.48893      -15.52870        3.99027
H         16.96556      -17.11453        7.34397
H         14.84237      -14.88526       10.06984
