101

C         -0.46929       -2.14009        1.70980
O         -0.38968       -2.65418        0.61477
C          0.64555       -1.46423        2.37642
C          0.20001       -0.77101        3.51190
C          1.15080       -0.11945        4.28775
C          2.50248       -0.16154        3.90075
C          2.90358       -0.86141        2.75413
C          1.97123       -1.52827        1.97287
Br         4.73096       -0.91652        2.27721
C         -1.28405       -0.94331        3.61359
C         -2.12141       -0.17667        4.35225
C         -1.66652        0.85845        5.21654
N         -1.29044        1.69710        5.92512
C         -3.54542       -0.30239        4.29686
N         -4.69929       -0.40105        4.26201
C         -1.64912       -2.00343        2.63007
C         -2.73130       -2.80093        2.63443
C         -2.98142       -3.92365        1.78783
C         -2.12753       -4.87539        1.23234
C         -2.86016       -5.88626        0.60708
C         -4.22344       -5.72085        0.63633
S         -4.65780       -4.31365        1.43413
C         -4.98529       -6.75972        0.01329
C         -4.25931       -7.80439       -0.51491
Si        -2.44647       -7.49386       -0.22714
C         -1.39986       -7.36716       -1.74125
C         -1.66140       -8.70640        0.94127
C         -5.03216       -8.78095       -1.14988
C         -6.38879       -8.45116       -1.10389
S         -6.62793       -6.94163       -0.25274
C         -7.54599       -9.12633       -1.73708
C         -8.85094       -9.18422       -1.19236
C         -9.96796       -9.69579       -1.94057
N        -11.19694       -9.66282       -1.37565
C        -11.37141       -9.20004       -0.11863
C        -10.29753       -8.80248        0.62266
N         -9.04809       -8.78006        0.08807
C        -10.40033       -8.49520        2.01647
N        -10.51383       -8.30275        3.15482
C        -12.72211       -9.17924        0.36117
N        -13.80990       -9.14580        0.76622
C         -9.83381      -10.26600       -3.23388
C         -8.51180      -10.34378       -3.75704
C         -7.35217       -9.75308       -3.00345
N         -6.18985       -9.89739       -3.66710
S         -6.49627      -10.72846       -5.05513
N         -8.12788      -10.90887       -4.91703
C        -10.95558      -10.84554       -4.01706
C        -10.96632      -11.92160       -4.91178
C        -12.27431      -12.20599       -5.32116
C        -13.23547      -11.40740       -4.75365
S        -12.55976      -10.15234       -3.88756
C        -14.58955      -11.81797       -4.94932
C        -14.77169      -12.97021       -5.68435
Si       -13.11106      -13.52366       -6.33086
C        -12.99908      -13.12663       -8.16083
C        -12.54656      -15.24661       -6.07177
C        -16.09442      -13.42799       -5.70390
C        -16.93312      -12.52536       -5.04978
S        -16.02782      -11.21038       -4.34490
C        -18.33153      -12.55440       -4.80490
C        -19.27758      -13.01195       -5.63455
C        -20.60565      -13.27212       -4.98944
O        -21.01798      -12.86741       -3.92267
C        -21.30832      -14.19706       -5.88306
C        -20.55588      -14.43265       -7.04801
C        -19.33967      -13.55925       -7.00066
C        -18.63094      -13.15915       -8.08578
C        -18.77887      -13.75403       -9.37300
N        -18.87769      -14.25515      -10.41551
C        -17.74856      -12.03978       -8.06827
N        -17.04998      -11.11556       -8.12765
C        -21.07101      -15.31941       -7.98485
C        -22.32431      -15.91211       -7.75326
C        -23.04692      -15.64004       -6.58258
C        -22.53714      -14.78111       -5.61961
Br       -24.73376      -16.44680       -6.31375
H          0.90726        0.41884        5.19770
H          3.24359        0.35501        4.50930
H          2.25372       -2.09275        1.08936
H         -3.50143       -2.65704        3.38569
H         -1.04883       -4.85625        1.31879
H         -1.91971       -6.84237       -2.54864
H         -1.12171       -8.35760       -2.11543
H         -0.47322       -6.82175       -1.53521
H         -2.24907       -8.80372        1.85951
H         -0.65441       -8.38240        1.22154
H         -1.58262       -9.69798        0.48596
H         -4.63806       -9.65543       -1.65341
H        -10.08831      -12.48929       -5.19520
H        -13.46275      -12.15917       -8.37869
H        -13.51104      -13.88921       -8.75513
H        -11.95479      -13.08296       -8.48352
H        -12.58727      -15.53576       -5.01744
H        -11.50952      -15.36959       -6.40265
H        -13.15325      -15.96133       -6.63619
H        -16.43903      -14.34626       -6.16064
H        -18.63505      -12.22403       -3.80820
H        -20.55876      -15.57726       -8.90558
H        -22.73717      -16.58482       -8.50370
H        -23.06708      -14.56163       -4.69787
