81

C          2.24841       -3.93696      -10.37679
O          3.21121       -4.89648      -10.41036
C          3.90716       -4.79598       -9.24812
C          3.40150       -3.78057       -8.46955
C          2.33340       -3.21255       -9.20909
C          1.48229       -2.12425       -8.86393
C          1.83367       -1.10810       -8.05917
C          0.93413       -0.02739       -7.72206
C          1.04743        0.67676       -6.58453
C          0.12946        1.72980       -6.19648
C          0.48574        3.00367       -5.88934
O         -0.45865        3.98299       -5.55325
C         -1.73269        3.54853       -5.44034
C         -2.09210        2.20855       -5.68399
C         -3.41360        1.95126       -5.42794
S         -4.23185        3.38909       -4.94954
C         -2.79537        4.33227       -5.07256
O         -1.19685        1.28517       -6.09859
C          1.83677        3.51409       -5.94203
C          2.52458        4.10508       -4.95105
C          2.12519        4.33204       -3.54758
C          2.37945        3.42756       -2.49818
C          2.15884        3.77343       -1.10813
N          2.38726        2.84785       -0.14495
C          2.81852        1.60950       -0.50736
C          3.06147        1.29834       -1.82413
N          2.85730        2.20285       -2.81842
C          3.52805        0.01100       -2.24372
N          3.89983       -1.03863       -2.57409
C          2.99876        0.66978        0.55663
N          3.15565       -0.11230        1.40890
C          1.74042        5.06243       -0.70060
C          1.50119        6.00482       -1.74413
C          1.61530        5.60694       -3.19093
N          1.20204        6.57307       -4.03162
S          0.79733        7.88150       -3.10454
N          1.24925        7.31857       -1.62281
C          1.68348        5.46216        0.73745
C          0.85215        6.29236        1.39446
C          1.03443        6.70639        2.77240
C          0.24589        7.73074        3.14143
C         -0.64783        8.18105        2.09033
S         -0.56779        7.04894        0.73937
C         -1.45702        9.25793        2.09470
C         -1.70539       10.18277        3.18419
C         -2.67868       11.07404        2.92988
C         -3.23770       10.96666        1.59586
S         -2.41728        9.71871        0.69698
C         -4.26891       11.69457        1.13317
C         -4.77003       11.59578       -0.20493
O         -3.95513       11.34538       -1.28911
C         -4.67932       11.27203       -2.44611
C         -5.99069       11.54107       -2.10626
C         -6.06390       11.74470       -0.69637
C         -7.31545       12.03275        0.03846
F         -7.14060       12.16976        1.37648
F         -7.88916       13.18419       -0.39953
F         -8.23755       11.05096       -0.13837
C         -4.09007       10.96499       -3.70220
C         -4.82119       10.89251       -4.82190
H          1.61000       -3.89014      -11.24804
H          4.71394       -5.50440       -9.12313
H          3.75853       -3.49664       -7.48946
H          0.47486       -2.14443       -9.27716
H          2.83547       -1.06886       -7.63545
H          0.14292        0.20050       -8.43502
H          1.81809        0.43086       -5.85751
H         -3.93970        1.00942       -5.49191
H         -2.80933        5.39048       -4.85265
H          2.32545        3.41328       -6.91144
H          3.52940        4.46062       -5.18135
H          2.47880        5.00179        1.32550
H          1.77786        6.26115        3.41903
H          0.29132        8.19725        4.11499
H         -1.18744       10.12901        4.13127
H         -3.02326       11.80862        3.64588
H         -4.76568       12.39272        1.80086
H         -6.82175       11.57531       -2.79687
H         -3.01958       10.77848       -3.73020
H         -5.89241       11.06405       -4.83169
H         -4.35946       10.65281       -5.77258
