101

C          1.20432       -0.99669        0.76938
O          0.11770       -1.30307        1.21246
C          2.19862       -0.13884        1.43443
C          3.27719        0.11943        0.57404
C          4.39055        0.77355        1.08475
C          4.38611        1.19409        2.42905
C          3.26913        0.95927        3.25597
C          2.15653        0.28109        2.75465
Br         3.20452        1.48705        5.07927
Br         5.96224        2.05453        3.05709
C          2.96676       -0.47504       -0.75800
C          3.50517       -0.11227       -1.94714
C          4.53274        0.86741       -2.05823
N          5.37437        1.66186       -2.13554
C          3.03431       -0.63764       -3.18529
N          2.64331       -1.08505       -4.18133
C          1.83068       -1.39593       -0.53833
C          1.51711       -2.52042       -1.20397
C          0.56188       -3.45365       -0.71965
O          0.91745       -4.46196        0.14024
C         -0.17319       -5.23826        0.43244
C         -1.27033       -4.71147       -0.24416
C         -0.78939       -3.59273       -0.98499
C         -1.54582       -2.74689       -1.85241
N         -2.15972       -2.06891       -2.56523
C         -2.66981       -5.19550       -0.22021
F         -2.84197       -6.28817        0.56606
F         -3.51335       -4.24354        0.24984
F         -3.10200       -5.53410       -1.45890
C         -0.10421       -6.35659        1.29072
N         -0.39685       -6.34988        2.65183
C         -0.77563       -5.18929        3.43707
C          0.20813       -4.88770        4.55740
C         -0.40303       -7.66208        3.17536
O         -0.67259       -8.05429        4.29250
C         -0.06250       -8.48540        1.99670
C          0.13279       -7.60229        0.87943
C          0.43268       -8.42502       -0.30365
O          0.63815       -8.02892       -1.43218
N          0.37639       -9.73801        0.20882
C          0.51185      -10.91069       -0.63360
C          1.95364      -11.36841       -0.77818
C          0.06579       -9.74302        1.56847
C         -0.10220      -10.94541        2.33343
C         -1.18746      -11.18013        3.08888
C         -1.37283      -12.31534        4.00571
C         -2.62107      -12.95567        4.15078
C         -3.82341      -12.69406        3.33771
O         -3.86876      -11.96546        2.36498
S         -5.19868      -13.60385        3.90540
C         -4.23326      -14.44862        5.08851
O         -4.66960      -15.35776        5.76933
C         -2.84587      -13.95372        5.12144
C         -1.82827      -14.38847        5.98792
C         -0.57307      -13.81598        5.74459
C         -0.36448      -12.77811        4.85313
C          1.01129      -12.32183        5.05493
O          1.56558      -11.35049        4.59038
O          1.58771      -13.21774        5.88941
C          0.73024      -14.18662        6.26930
O          1.02580      -15.21129        6.84766
C         -2.04503      -15.35810        7.08523
C         -1.51080      -15.20706        8.31085
C         -1.66994      -16.16379        9.38419
C         -0.72460      -16.96105        9.90322
C         -1.16971      -18.10322       10.76743
O         -2.17983      -18.19032       11.43142
C         -0.14611      -19.14790       10.58457
C          0.90506      -18.67188        9.78333
C          0.68775      -17.20846        9.57563
C          1.68454      -16.30089        9.44153
C          1.47233      -14.91034        9.69448
N          1.31093      -13.78465        9.92281
C          3.03201      -16.65996        9.13848
N          4.11734      -16.96875        8.87977
C          1.88490      -19.56125        9.37177
C          1.83341      -20.89333        9.82356
C          0.79968      -21.32738       10.67898
C         -0.21471      -20.44718       11.05777
Br         0.69227      -23.10033       11.35167
Br         3.21275      -22.05255        9.21456
H          5.28123        0.94273        0.48670
H          1.29432        0.05415        3.37570
H          2.07319       -2.84707       -2.07570
H         -1.76372       -5.38789        3.86704
H         -0.86506       -4.30811        2.79415
H          0.25008       -5.70503        5.28408
H         -0.09613       -3.98156        5.09149
H          1.21837       -4.73321        4.16553
H          0.11526      -10.66637       -1.62539
H         -0.10396      -11.72350       -0.23355
H          2.56440      -10.59958       -1.26194
H          1.99969      -12.27462       -1.39136
H          2.40251      -11.59274        0.19466
H          0.74025      -11.63138        2.30009
H         -2.01312      -10.46777        3.05404
H         -2.68506      -16.21413        6.87243
H         -0.92084      -14.33069        8.55726
H         -2.70163      -16.28622        9.72486
H          2.68508      -19.26052        8.70141
H         -1.04348      -20.75720       11.68773
