115

C         -0.75568        0.26787       -0.97425
C         -2.05933        0.32928       -1.33724
C         -2.47447        0.17026       -2.69012
N         -2.79227        0.06802       -3.80278
C         -3.11359        0.35112       -0.37767
N         -4.01102        0.25309        0.35990
C          0.29172       -0.38719       -1.78684
C          1.06583       -1.17728       -0.91759
C          2.01821       -2.06880       -1.38252
C          2.25429       -2.11918       -2.76879
C          1.57734       -1.21140       -3.63687
C          0.58692       -0.35208       -3.13666
C          1.89168       -1.19590       -5.00204
C          2.80839       -2.10301       -5.53009
C          3.41905       -3.03837       -4.69967
C          3.15587       -3.03877       -3.32692
C          0.75976       -0.80793        0.49130
O          1.27391       -1.25737        1.49441
C         -0.22060        0.33161        0.37978
C         -0.19465        1.35432        1.25268
C         -0.67371        2.71716        0.97196
C          0.11800        3.67856        0.30956
C         -0.31419        5.00328        0.06062
F          0.55892        5.83084       -0.53689
C         -1.56557        5.51578        0.44346
C         -2.41010        4.60105        1.12984
C         -1.94260        3.17611        1.41999
N         -2.83823        2.47516        2.12745
S         -4.17085        3.43959        2.32090
N         -3.64808        4.83972        1.59743
C         -1.97852        6.88746        0.19433
N         -1.75561        7.95457        1.07014
C         -1.04865        7.95469        2.33473
C          0.44558        7.71704        2.18937
C         -2.25700        9.15924        0.55722
O         -2.23995       10.25797        1.07349
C         -2.77785        8.76921       -0.76973
C         -2.57115        7.35185       -0.91744
C         -3.08656        6.96708       -2.24723
O         -3.08702        5.85201       -2.72850
N         -3.55160        8.19201       -2.77874
C         -4.11475        8.30355       -4.11985
C         -3.07248        8.62561       -5.18433
C         -3.37071        9.24470       -1.86972
C         -3.83597       10.57909       -2.12333
C         -3.74833       11.60460       -1.26493
C         -4.36348       12.88198       -1.43862
C         -4.64818       13.45781       -2.62095
C         -5.28858       14.73619       -2.35450
C         -5.28677       14.89806       -0.89509
C         -4.73019       13.79568       -0.36972
C         -5.74867       15.97466       -0.10501
N         -6.13410       16.85599        0.54991
C         -5.79657       15.54302       -3.30203
C         -6.50551       16.77304       -3.01904
C         -6.96296       17.28097       -4.17608
C         -6.49947       16.43312       -5.26238
C         -5.81354       15.39046       -4.76268
C         -5.23276       14.37729       -5.55917
N         -4.75652       13.54174       -6.21090
C         -7.72266       18.49318       -4.26355
C         -8.54100       18.91739       -3.28827
C         -9.34196       20.10501       -3.39619
C        -10.28518       20.33287       -4.32079
C        -11.04882       21.56498       -4.58933
C        -11.37574       22.53120       -3.69539
C        -12.18680       23.64787       -4.03657
N        -12.84328       24.56228       -4.31336
C        -10.99017       22.48386       -2.32336
N        -10.67578       22.45195       -1.20490
C        -11.52750       21.45708       -6.00051
C        -11.30596       20.14740       -6.44543
C        -10.61960       19.36122       -5.42064
O        -10.39715       18.17147       -5.50287
C        -11.63994       19.68524       -7.70783
C        -12.22140       20.58501       -8.59926
C        -12.43937       21.93378       -8.19768
C        -12.08202       22.36093       -6.89928
C        -13.01002       22.82396       -9.11826
C        -13.36588       22.39887      -10.40049
C        -13.15426       21.07755      -10.78459
C        -12.58261       20.17490       -9.88989
H          2.57090       -2.69537       -0.68733
H          0.06141        0.32097       -3.80819
H          1.41634       -0.48146       -5.67183
H          3.03252       -2.08724       -6.59397
H          4.10679       -3.76705       -5.12200
H          3.65411       -3.77584       -2.70030
H          0.37794        1.25610        2.17499
H          1.12955        3.42327       -0.00607
H         -1.51193        7.22976        3.00914
H         -1.17216        8.94172        2.79997
H          0.65685        6.67275        1.95558
H          0.95970        7.94724        3.12736
H          0.87827        8.33789        1.39742
H         -4.90458        9.06092       -4.13514
H         -4.59674        7.35371       -4.37420
H         -2.52748        9.54735       -4.95526
H         -3.55667        8.75682       -6.15895
H         -2.34199        7.81616       -5.27873
H         -4.37542       10.74176       -3.05130
H         -3.25511       11.51675       -0.31014
H         -4.44873       13.01356       -3.57953
H         -4.57414       13.58815        0.67771
H         -6.67877       17.21528       -2.05437
H         -6.70620       16.62703       -6.30469
H         -7.64875       19.03285       -5.20397
H         -8.63923       18.38011       -2.34651
H         -9.08236       20.83387       -2.63333
H        -11.43347       18.65412       -7.98274
H        -12.23804       23.40165       -6.63754
H        -13.18844       23.86244       -8.84509
H        -13.81144       23.10156      -11.09996
H        -13.43468       20.74832      -11.78193
H        -12.42290       19.14697      -10.20990
