114

C         -3.92534        5.03307       -2.87867
C         -3.74156        4.09466       -3.83303
C         -3.88043        4.40593       -5.22145
N         -4.01033        4.66905       -6.34034
C         -3.56985        2.71665       -3.50578
N         -3.46307        1.59380       -3.26150
C         -4.37694        6.41928       -3.10691
C         -5.28104        6.74300       -2.08142
C         -5.81120        8.00610       -1.91905
C         -5.27814        9.02778       -2.71238
C         -4.26899        8.73821       -3.68342
C         -3.86777        7.41245       -3.92363
C         -3.62198        9.80085       -4.32690
C         -3.96067       11.12194       -4.03141
C         -4.98443       11.39799       -3.12877
C         -5.64931       10.35670       -2.48228
C         -5.24117        5.68831       -1.03796
O         -5.91818        5.60600       -0.03780
C         -4.05576        4.84754       -1.43292
C         -3.16577        4.54505       -0.46546
C         -1.72343        4.20696       -0.59929
C         -1.02611        3.34898        0.28809
C          0.37213        3.23325        0.10181
C          1.09163        3.94112       -0.84901
C          0.39766        4.79120       -1.72283
C         -0.97797        4.91149       -1.57602
N          1.04037        5.49626       -2.67691
C          2.38534        5.35811       -2.72021
C          3.06860        4.54173       -1.84471
N          2.43128        3.81086       -0.90832
C         -1.59951        2.55997        1.41453
N         -2.81877        1.84990        1.39299
C         -3.60678        1.47986        0.23534
C         -3.24405        0.10498       -0.30783
C         -3.01958        1.11056        2.58430
O         -3.94005        0.39461        2.91951
C         -1.75623        1.30628        3.28962
C         -0.96685        2.26505        2.57151
C          0.31587        2.38865        3.31871
O          1.24101        3.13881        3.08405
N          0.22037        1.37148        4.29736
C          1.37715        0.90848        5.04704
C          2.14605       -0.20460        4.34023
C         -1.02749        0.75700        4.25999
C         -1.39816       -0.39727        5.02314
C         -1.54449       -0.41608        6.35611
N         -1.96338       -1.51173        7.07790
C         -2.07221       -1.47778        8.48101
C         -1.69235       -0.32565        9.34534
C         -2.54892       -2.65717        8.90443
C         -2.77741       -3.49257        7.75931
C         -2.36711       -2.76873        6.55220
O         -2.39139       -3.21361        5.42191
C         -3.26840       -4.66997        8.14686
C         -3.57745       -5.82365        7.26395
N         -3.42199       -4.64151        9.53445
C         -2.92981       -3.44028       10.10273
O         -2.80825       -3.10999       11.26551
C         -3.83702       -5.74853       10.22818
C         -5.11668       -6.05890       10.49578
C         -5.67024       -7.16461       11.30972
C         -5.19893       -8.43376       11.37383
C         -5.86326       -9.47561       12.08425
N         -6.40101      -10.32162       12.66751
C         -4.04227       -8.83979       10.63935
N         -3.11107       -9.14515       10.02584
C         -6.98769       -6.69080       11.82387
C         -7.34358       -5.53769       11.10964
C         -6.25987       -5.13093       10.19791
O         -6.30950       -4.21494        9.40472
C         -8.53552       -4.85876       11.30256
C         -9.42258       -5.34128       12.27030
C         -9.07802       -6.49036       13.03716
C         -7.84836       -7.15012       12.81403
C         -9.98384       -6.95162       14.00613
C        -11.20638       -6.30668       14.20919
C        -11.53701       -5.18281       13.45783
C        -10.64816       -4.69918       12.49802
H         -6.49673        8.21027       -1.10180
H         -3.07930        7.19895       -4.64135
H         -2.80933        9.61384       -5.02652
H         -3.41501       11.93805       -4.49843
H         -5.24837       12.42834       -2.90463
H         -6.42674       10.59738       -1.75996
H         -3.48879        4.65261        0.57270
H          0.96683        2.57681        0.73316
H         -1.45358        5.63402       -2.23329
H          2.90286        5.92879       -3.48253
H          4.14819        4.44933       -1.86741
H         -3.47635        2.19151       -0.56738
H         -4.66452        1.49248        0.52068
H         -2.20407        0.08244       -0.65039
H         -3.88994       -0.14223       -1.15546
H         -3.37074       -0.67634        0.44602
H          1.06182        0.57059        6.03811
H          2.05328        1.75755        5.19308
H          1.54296       -1.11401        4.24756
H          3.04632       -0.45984        4.91035
H          2.45679        0.09427        3.33365
H         -1.61431       -1.27431        4.41631
H         -1.34925        0.49637        6.91020
H         -0.79024        0.18061        8.98763
H         -1.47504       -0.65220       10.36774
H         -2.50862        0.40245        9.38700
H         -3.54361       -5.53134        6.20841
H         -4.57518       -6.22706        7.45320
H         -2.83693       -6.61721        7.40579
H         -3.01284       -6.31229       10.65502
H         -8.75678       -3.97087       10.71648
H         -7.59949       -8.00504       13.43625
H         -9.75204       -7.82820       14.60864
H        -11.90315       -6.68479       14.95354
H        -12.48854       -4.68132       13.61680
H        -10.92458       -3.81613       11.92480
