106

C         -0.93495       -0.59947       -4.17554
S         -1.21313        1.07994       -4.22403
C          0.46909        1.46189       -4.11471
C          1.21526        0.28416       -4.08596
C          0.40109       -0.91001       -4.04244
C          1.01928       -2.29589       -3.93191
C          0.15036       -3.20076       -3.15737
N         -0.53514       -3.92110       -2.55288
C          2.45023       -2.30106       -3.32351
C          3.05193       -0.92125       -3.00710
C          2.71487        0.11666       -4.08950
O          3.19277       -0.38305       -5.34963
C          2.97070        0.52216       -6.42750
C          0.86976        2.83424       -4.08617
C          1.95526        3.25370       -3.40240
C          2.10718        4.70270       -3.55591
C          0.94871        5.12596       -4.34532
C          0.24074        4.01737       -4.66333
C          0.57529        6.42168       -4.78227
N          0.23155        7.47521       -5.13252
C          3.13929        5.42252       -3.05827
C          3.27638        6.87695       -3.09658
C          4.44765        7.23902       -2.51686
C          5.13333        6.01328       -2.13771
C          4.35407        4.94940       -2.38440
C          4.71137        3.63981       -2.00704
N          4.99297        2.56555       -1.66471
C          4.82903        8.60909       -2.27019
N          5.51799        9.10632       -1.14287
C          6.12962        8.41635       -0.02513
C          5.18451        7.63025        0.86322
C          5.66265       10.50825       -1.21354
O          6.21780       11.26821       -0.44658
C          4.99449       10.84624       -2.47235
C          4.52070        9.63891       -3.07182
C          3.85240       10.00894       -4.33715
O          3.35360        9.25652       -5.14784
N          3.96508       11.41467       -4.35551
C          3.42832       12.21430       -5.44053
C          1.99381       12.65853       -5.19660
C          4.65888       11.88130       -3.24056
C          4.89997       13.26053       -2.94513
C          5.99358       13.68475       -2.29242
C          6.14494       15.04162       -1.93438
O          7.25427       15.48635       -1.23469
C          7.09155       16.82972       -1.15468
C          5.89541       17.14979       -1.77040
N          5.29587       16.01799       -2.22690
C          5.50640       18.48554       -1.86216
C          6.35547       19.46596       -1.35257
C          7.54219       19.08505       -0.74546
C          7.94631       17.76887       -0.60656
O          8.19704       20.21007       -0.36469
C          7.37753       21.23693       -0.78253
N          6.25087       20.82621       -1.34338
C          7.70494       22.62685       -0.62841
S          9.16913       23.07840        0.13744
C          8.82396       24.73504       -0.02296
C          7.60223       24.96153       -0.62139
C          6.97854       23.73237       -1.05643
C          5.69161       23.72280       -1.87224
C          5.97688       23.25486       -3.25525
N          6.18561       22.91686       -4.33930
C          5.02554       25.11740       -1.93931
C          6.04565       26.26660       -2.05484
C          6.95932       26.30833       -0.81627
O          6.11549       26.67712        0.28786
C          6.78712       26.77787        1.53551
H         -1.77503       -1.28121       -4.22924
H          1.09275       -2.69408       -4.95444
H          3.11599       -2.80792       -4.03583
H          2.49814       -2.91298       -2.41240
H          4.13825       -1.02700       -2.90574
H          2.67093       -0.57853       -2.03483
H          3.26181        1.03134       -3.86586
H          3.48036        0.13211       -7.31218
H          3.36979        1.51587       -6.20130
H          1.90380        0.58819       -6.66162
H          2.57218        2.62587       -2.78884
H         -0.66487        3.98136       -5.25364
H          2.52656        7.56157       -3.46216
H          6.11296        5.98707       -1.68437
H          6.60291        9.16544        0.62624
H          6.95201        7.80000       -0.40006
H          4.45298        8.28922        1.34052
H          5.75617        7.13139        1.65373
H          4.63631        6.86386        0.31745
H          3.45451       11.61104       -6.35588
H          4.07400       13.08236       -5.60825
H          1.32576       11.80036       -5.06880
H          1.63200       13.24545       -6.04771
H          1.91653       13.28052       -4.29962
H          4.12348       13.96807       -3.22836
H          6.79418       13.01903       -1.99219
H          4.57782       18.75070       -2.35264
H          8.87928       17.49662       -0.12981
H          9.51782       25.46729        0.36687
H          4.97084       23.04075       -1.40625
H          4.42612       25.26633       -1.03168
H          4.32102       25.17017       -2.77978
H          5.49838       27.21248       -2.14196
H          6.64344       26.14274       -2.96637
H          7.71855       27.08712       -0.95736
H          6.13517       27.31230        2.23154
H          7.72673       27.32985        1.44127
H          6.96704       25.78129        1.95022
