108

C          6.01197        4.71117        2.35960
N          5.81313        6.06921        2.14710
C          6.82871        7.08502        2.31189
C          7.61313        7.32466        1.03356
C          4.50080        6.35044        1.71636
O          3.98820        7.40670        1.41013
C          3.87364        5.01524        1.73111
C          4.87726        4.05918        2.11306
C          4.26089        2.72274        2.10024
O          4.81126        1.66903        2.34680
N          2.92354        3.00125        1.74527
C          1.92682        1.95528        1.60611
C          1.64702        1.22788        2.91358
C          2.72422        4.36889        1.53411
C          1.46174        4.93980        1.16512
C          0.87139        5.90778        1.88152
C         -0.37543        6.48117        1.51877
S         -0.69805        8.11496        2.01958
C         -1.47719        6.01315        0.84633
C         -1.91621        4.77598        0.23606
O         -1.30810        3.71679        0.19371
N         -3.17930        5.05037       -0.25191
C         -4.02220        4.07315       -0.90393
C         -4.91516        3.35119        0.09136
C         -3.62895        6.31868        0.05111
O         -4.72966        6.79257       -0.17824
C         -2.52452        6.94866        0.72363
C         -2.26615        8.16663        1.29123
C         -3.04200        9.34544        1.42039
C         -3.98746        9.68046        0.53037
C         -4.83758       10.80624        0.71991
S         -5.26958       11.31342        2.30307
C         -6.16690       12.63439        1.73423
C         -6.26002       12.64258        0.35417
C         -5.47613       11.58359       -0.23684
C         -5.38743       11.39516       -1.73419
C         -5.84019       12.63476       -2.52879
S         -4.48547       13.87417       -2.64651
C         -7.13219       13.24518       -1.94338
O         -8.21236       12.30545       -2.08762
C         -7.00157       13.66548       -0.46766
C         -6.62653       13.56716        2.68807
C         -7.90454       13.57817        3.09661
C         -8.39765       14.55376        4.07475
C         -8.02609       15.91352        4.07526
C         -7.28546       16.63876        3.02474
O         -7.08559       16.24234        1.89276
S         -6.78929       18.22015        3.56669
C         -7.88475       18.14031        4.91873
O         -8.22011       19.11866        5.55856
C         -8.38880       16.77257        5.11890
C         -9.17207       16.33562        6.18889
C         -9.65504       15.03058        6.10429
C         -9.27966       14.17323        5.09084
C         -9.95645       12.90615        5.33510
O         -9.89066       11.89729        4.66563
O        -10.70783       13.08281        6.45026
C        -10.59217       14.33054        6.96730
O        -11.18238       14.76852        7.92886
C         -9.41804       17.17191        7.35447
C         -8.64280       17.10065        8.45058
C         -8.84134       17.93122        9.61552
N         -9.60254       19.07581        9.44132
C         -9.75747       19.65215       10.58948
C        -10.94448       20.46280       10.98254
C        -11.11976       20.00095       12.47365
N        -10.21843       18.84430       12.83915
S         -8.80064       18.89271       11.87295
C         -8.41559       17.60090       10.84696
H          6.96061        4.30732        2.68359
H          7.50028        6.78668        3.12431
H          6.33614        8.01758        2.61051
H          8.13597        6.41654        0.71667
H          8.35724        8.11226        1.18794
H          6.95211        7.63313        0.21695
H          2.30652        1.23730        0.86968
H          0.99068        2.36371        1.21526
H          2.54439        0.73376        3.29859
H          0.88456        0.45731        2.76152
H          1.29014        1.92027        3.68266
H          1.01165        4.54413        0.26017
H          1.37074        6.30322        2.76518
H         -3.38780        3.35179       -1.42928
H         -4.64533        4.58966       -1.64291
H         -4.31906        2.83310        0.84941
H         -5.53852        2.61461       -0.42332
H         -5.57556        4.05401        0.61123
H         -2.84631        9.96885        2.29011
H         -4.14292        9.10253       -0.37499
H         -6.03999       10.55186       -1.99779
H         -4.37182       11.10135       -2.02654
H         -6.03925       12.31309       -3.55827
H         -4.24038       13.97367       -1.33031
H         -7.43175       14.11882       -2.53420
H         -8.16459       11.67267       -1.34748
H         -8.00136       13.81626       -0.04316
H         -6.46169       14.61743       -0.40043
H         -5.88351       14.27041        3.05141
H         -8.59469       12.81076        2.74345
H        -10.24763       17.87469        7.29323
H         -7.82388       16.38875        8.51094
H        -11.80651       20.18520       10.37066
H        -10.72467       21.52891       10.90165
H        -12.16385       19.73698       12.67194
H        -10.86819       20.84107       13.13072
H        -10.73551       17.99106       12.61183
H         -7.85226       19.78580       12.20967
H         -7.86039       16.72210       11.13552
