98

C         -9.97468       -2.13585        1.71855
C         -9.08073       -3.11547        1.43588
C         -9.29632       -4.48499        1.77636
N         -9.46454       -5.59421        2.05753
C         -7.87697       -2.85883        0.73028
N         -6.88072       -2.63471        0.15901
C        -11.33039       -2.30799        2.32913
C        -12.06287       -1.14042        2.10035
C        -13.34236       -0.90600        2.58799
C        -13.95201       -1.93199        3.33896
C        -13.24721       -3.12914        3.54006
C        -11.92689       -3.33230        3.05638
S        -14.20114       -4.26339        4.43102
C        -15.48779       -3.17867        4.56133
C        -15.23792       -1.96630        3.97780
Br       -17.10184       -3.59610        5.41510
C        -11.27525       -0.17297        1.33129
O        -11.72357        0.81582        0.79274
C         -9.87125       -0.70364        1.34184
C         -8.79074        0.09317        1.24703
C         -8.88757        1.50409        1.04426
S         -8.90562        2.13014       -0.56645
C         -9.01160        3.78358       -0.05835
C         -9.14220        3.83250        1.31938
C         -8.97567        2.54144        1.95283
C         -8.96007        2.35866        3.34311
C         -9.16155        3.56548        4.04370
F         -9.16908        3.51471        5.38505
C         -9.36823        4.82536        3.42310
F         -9.57446        5.90311        4.19678
C         -9.36912        5.01767        2.03705
C         -8.95184        4.80861       -1.05629
C         -8.41991        6.00673       -0.77080
C         -8.33908        7.12158       -1.67769
C         -7.83992        8.33594       -1.36425
C         -7.25643        8.71476       -0.02157
C         -7.84706        9.44344       -2.39071
N         -8.59698       10.57105       -1.87269
C         -8.06916       11.61273       -1.14392
C         -8.74891       12.66137       -0.65888
C         -8.12260       13.66905        0.12760
S         -8.09509       13.41991        1.82138
C         -7.26200       14.89568        2.18306
C         -6.92817       15.52766        0.99308
C         -7.51057       14.87181       -0.17765
C         -7.39282       15.37627       -1.48282
C         -6.64219       16.56562       -1.54369
F         -6.49116       17.14389       -2.74754
C         -6.03193       17.17906       -0.41534
F         -5.30263       18.28979       -0.61859
C         -6.14431       16.69479        0.90642
C         -6.99162       15.21646        3.55514
C         -7.78480       14.80134        4.56035
C         -7.52930       15.09913        5.95114
C         -8.26851       14.69877        6.99564
C         -9.48491       13.88406        7.11176
C         -9.73717       12.69479        6.50806
C        -10.95638       11.98021        6.67953
N        -11.96929       11.42284        6.79488
C         -8.74259       12.00671        5.75356
N         -7.92380       11.40721        5.18432
C        -10.21645       14.39946        8.30350
C         -9.32276       15.17193        9.05591
C         -8.06415       15.37738        8.31513
O         -7.09998       16.01166        8.68776
C         -9.61084       15.67097       10.31899
C        -10.87563       15.35970       10.86877
C        -11.80024       14.65199       10.08399
C        -11.50271       14.19142        8.77981
S        -13.28487       14.40937       10.93242
C        -12.67890       15.14268       12.32510
C        -11.41095       15.63664       12.17312
Br       -13.64937       15.26050       13.92215
H        -13.84051        0.04271        2.40579
H        -11.43227       -4.27006        3.28182
H        -15.93781       -1.13892        3.97725
H         -7.78515       -0.28444        1.40213
H         -8.81249        1.42316        3.86196
H         -9.54211        6.00075        1.62263
H         -9.31853        4.59195       -2.05554
H         -8.01402        6.18448        0.21604
H         -8.73642        6.94530       -2.67551
H         -7.12250        7.87705        0.66297
H         -7.91309        9.42771        0.48647
H         -6.26863        9.16990       -0.14482
H         -8.31442        9.10797       -3.32458
H         -6.82711        9.75017       -2.64973
H         -9.60900       10.50772       -1.93118
H         -6.99570       11.50940       -0.98855
H         -9.81557       12.72902       -0.83245
H         -7.80059       14.93776       -2.38262
H         -5.64494       17.19538        1.72527
H         -6.10899       15.80835        3.77658
H         -8.68563       14.23265        4.34931
H         -6.69678       15.78124        6.13031
H         -8.87159       16.24326       10.87298
H        -12.26450       13.65943        8.22135
H        -10.86362       16.14658       12.95653
