130

C          4.65861      -19.76142       -4.60454
C          3.80927      -19.18467       -5.45732
C          3.82791      -19.32003       -6.88909
C          2.94429      -18.52285       -7.50808
C          2.18797      -17.67362       -6.59925
S          2.54606      -18.11712       -4.92733
C          1.40025      -16.63690       -6.94304
C          1.10049      -16.18830       -8.29082
C          0.49847      -14.99115       -8.34028
C          0.28866      -14.40300       -7.03674
S          0.66964      -15.53776       -5.77183
C         -0.09188      -13.13343       -6.83729
C         -0.26896      -12.48806       -5.53209
C         -1.54494      -12.58824       -4.94478
C         -1.83112      -11.99173       -3.70927
C         -0.86032      -11.24582       -3.04985
C          0.39212      -11.12128       -3.63720
C          0.71292      -11.78238       -4.83197
N          2.09610      -11.62090       -5.04933
C          2.88606      -12.23637       -6.07632
C          2.70476      -10.98884       -3.95411
O          3.90344      -10.89641       -3.72834
C          1.59441      -10.36933       -3.10320
C          1.59528       -8.82295       -3.26591
C          0.17048       -8.26660       -3.09168
O         -0.48177       -8.29811       -2.05797
N         -0.24209       -7.77464       -4.33527
C         -1.59258       -7.38875       -4.63849
C          0.82148       -7.73228       -5.24300
C          0.86307       -7.22152       -6.53463
C          2.08159       -7.25339       -7.23774
C          3.23567       -7.73406       -6.57976
C          3.17620       -8.23852       -5.27645
C          1.94970       -8.27445       -4.63504
C          2.14103       -6.75919       -8.62836
C          2.97157       -7.25416       -9.56020
C          3.01972       -6.85902      -10.97221
N          3.55509       -7.77667      -11.80236
C          3.58089       -7.44913      -13.10205
C          3.13700       -6.24688      -13.58321
C          2.63804       -5.35943      -12.65451
N          2.55543       -5.65278      -11.34026
C          2.20968       -4.03247      -13.10965
C          1.70915       -3.08968      -12.28476
C          1.29780       -1.77429      -12.76781
C         -0.01749       -1.63432      -13.25106
C         -0.50374       -0.40085      -13.70864
C          0.32560        0.71432      -13.73462
C          1.63943        0.56575      -13.31447
C          2.10888       -0.64044      -12.78202
N          3.41014       -0.42407      -12.29572
C          4.22856       -1.41217      -11.64464
C          3.79320        0.91497      -12.45223
O          4.79788        1.45344      -12.00927
C          2.75631        1.58716      -13.37035
C          3.35488        1.82585      -14.79029
C          2.25145        1.74704      -15.87242
O          1.36171        2.56859      -16.04177
N          2.43072        0.54240      -16.56276
C          1.54132        0.01877      -17.56499
C          3.64559       -0.05293      -16.22134
C          4.21334       -1.21334      -16.71168
C          5.49079       -1.55516      -16.25453
C          6.17622       -0.71949      -15.35166
C          5.58115        0.44182      -14.86393
C          4.28979        0.73892      -15.27032
C          6.12463       -2.79334      -16.69617
C          5.96345       -3.93108      -16.00788
C          6.65038       -5.14696      -16.36898
C          6.08531       -6.30407      -16.73585
C          6.84800       -7.48604      -17.04167
C          6.10096       -8.50111      -17.48828
C          4.68741       -8.18593      -17.61095
S          4.37746       -6.58143      -16.96618
C          3.77288       -8.95990      -18.22460
C          4.08668      -10.18596      -18.93801
C          3.06027      -10.69380      -19.62647
C          1.84336       -9.94512      -19.46533
S          2.05850       -8.58112      -18.39939
C          0.68863      -10.24685      -20.06291
H          5.46600      -20.39823       -4.94428
H          4.57889      -19.58857       -3.53482
H          4.50872      -19.98448       -7.40252
H          2.84623      -18.47827       -8.58310
H          1.35516      -16.75484       -9.17514
H          0.22067      -14.49100       -9.25807
H         -0.29381      -12.48151       -7.68336
H         -2.32996      -13.15833       -5.43945
H         -2.81628      -12.11233       -3.26471
H         -1.08431      -10.78467       -2.09123
H          2.33705      -12.34302       -7.01056
H          3.25372      -13.20164       -5.71837
H          3.75387      -11.59926       -6.28124
H          1.74796      -10.65617       -2.05626
H          2.24912       -8.35067       -2.52303
H         -2.23320       -7.52349       -3.76173
H         -1.96973       -8.03210       -5.44001
H         -1.62467       -6.34242       -4.95109
H         -0.02685       -6.80612       -6.99481
H          4.20343       -7.72556       -7.07726
H          4.07892       -8.60755       -4.79644
H          1.41532       -5.98852       -8.90151
H          3.66436       -8.05753       -9.32639
H          3.99711       -8.20423      -13.76756
H          3.17105       -6.00624      -14.63027
H          2.32649       -3.81303      -14.17267
H          1.58622       -3.27328      -11.22606
H         -0.68944       -2.49205      -13.25813
H         -1.53004       -0.31431      -14.05820
H         -0.04577        1.66709      -14.10454
H          4.41450       -2.24249      -12.33214
H          3.73230       -1.76489      -10.73720
H          5.19730       -0.98497      -11.36961
H          2.41848        2.52157      -12.90875
H          3.86201        2.79450      -14.86214
H          0.63838        0.63047      -17.63664
H          1.25536       -1.00303      -17.29522
H          2.05058        0.01501      -18.53300
H          3.68949       -1.84493      -17.41939
H          7.17428       -0.98442      -15.00752
H          6.10878        1.06935      -14.15065
H          6.73924       -2.73187      -17.58892
H          5.34154       -3.96588      -15.11537
H          7.73686       -5.07765      -16.33497
H          7.92190       -7.53677      -16.92773
H          6.52383       -9.45700      -17.75819
H          5.07659      -10.61489      -18.97289
H          3.13581      -11.56752      -20.25818
H          0.61073      -11.09943      -20.73055
H         -0.20774       -9.65599      -19.90971
