112

C          1.97714        0.09667        2.88166
C          3.22005       -0.42303        3.23468
F          4.05164        0.31689        3.98066
C          3.59574       -1.69489        2.82673
F          4.78205       -2.19878        3.19296
C          2.74931       -2.46006        2.03282
C          1.50555       -1.94892        1.63852
C          1.09367       -0.65690        2.09163
C         -0.19023       -0.16445        1.76623
C         -1.03319       -0.93515        0.98144
C         -0.58031       -2.17769        0.51098
C          0.65936       -2.70541        0.82160
C         -1.66612       -2.86847       -0.20266
O         -1.55731       -3.73231       -1.04688
C         -2.90917       -2.17844        0.26587
C         -2.46568       -0.80235        0.58528
C         -3.12893        0.35551        0.35245
C         -2.49015        1.62162        0.47961
N         -1.94170        2.64231        0.57375
C         -4.46872        0.37078       -0.13839
N         -5.55225        0.39270       -0.52473
C         -4.05411       -2.81064        0.59135
C         -4.36446       -4.27477        0.56595
C         -5.66632       -4.76349        0.31616
C         -5.99765       -6.17424        0.34662
N         -7.27533       -6.57592        0.18049
C         -8.21505       -5.62948       -0.01711
C         -7.89612       -4.29725       -0.10020
N         -6.63246       -3.85535        0.06466
C         -5.02619       -7.16567        0.55075
C         -3.71747       -6.72515        0.86464
C         -3.39577       -5.25661        0.93381
N         -2.16010       -5.04437        1.42489
S         -1.39415       -6.50682        1.49193
N         -2.65429       -7.50758        1.12495
C         -5.27842       -8.60643        0.49706
N         -5.13481       -9.38104       -0.66539
C         -4.64914       -8.93156       -1.95333
C         -3.14142       -9.09548       -2.09722
C         -5.36254      -10.74954       -0.41308
O         -5.28543      -11.70584       -1.15691
C         -5.65033      -10.76635        1.02604
C         -5.59483       -9.41470        1.51946
C         -5.81404       -9.47862        2.98020
O         -5.79677       -8.54693        3.76038
N         -5.94568      -10.87242        3.22192
C         -5.89978      -11.43410        4.55994
C         -7.26159      -11.52306        5.22394
C         -5.86012      -11.60578        2.03851
C         -5.84751      -13.04271        1.94728
C         -6.88285      -13.84190        2.25296
C         -6.82449      -15.30406        2.08066
C         -6.36774      -16.19176        3.06798
C         -6.29027      -17.61259        2.83595
N         -5.76361      -18.40380        3.79688
C         -5.41051      -17.85942        4.97713
C         -5.54805      -16.52058        5.21462
N         -6.00271      -15.67863        4.26637
C         -6.77621      -18.22926        1.65578
C         -7.26079      -17.35238        0.64010
C         -7.27016      -15.86101        0.85259
N         -7.72732      -15.18444       -0.21481
S         -8.12716      -16.30252       -1.36504
N         -7.74297      -17.70337       -0.56633
C         -6.74548      -19.69034        1.36046
C         -6.87527      -20.73795        2.19646
C         -6.40498      -22.09833        1.75142
O         -6.28988      -22.52167        0.62110
C         -6.01354      -22.80074        2.99429
C         -5.41225      -24.04388        3.10039
C         -5.02236      -24.48369        4.37463
C         -5.16659      -23.61677        5.50058
C         -4.71750      -24.04171        6.76001
C         -4.19543      -25.32083        6.91864
C         -4.09964      -26.18158        5.83464
C         -4.49216      -25.76810        4.56467
F         -3.63160      -27.42568        6.00277
F         -3.80170      -25.72075        8.13547
C         -5.78429      -22.36260        5.34998
C         -6.27724      -21.99155        4.10727
C         -7.09161      -20.84248        3.64367
C         -8.01874      -20.18867        4.38273
C         -8.94723      -19.27964        3.79533
N         -9.68942      -18.52257        3.32792
C         -8.11451      -20.33420        5.79494
N         -8.14084      -20.41741        6.95170
H          1.71619        1.09254        3.23059
H          3.07281       -3.45396        1.73516
H         -0.51092        0.78896        2.17596
H          0.92377       -3.70026        0.47526
H         -4.88305       -2.22523        0.99110
H         -9.23723       -5.97952       -0.10552
H         -8.64677       -3.53950       -0.29514
H         -4.94261       -7.89125       -2.12012
H         -5.13590       -9.53821       -2.72614
H         -2.60097       -8.49463       -1.36281
H         -2.81701       -8.77546       -3.09206
H         -2.83562      -10.13799       -1.95771
H         -5.24874      -10.79868        5.17259
H         -5.43087      -12.42333        4.52863
H         -7.70623      -10.53118        5.34810
H         -7.16417      -11.97961        6.21500
H         -7.95434      -12.13298        4.63795
H         -4.93580      -13.46868        1.53204
H         -7.83065      -13.44779        2.60878
H         -5.03796      -18.54584        5.72923
H         -5.29633      -16.08342        6.17307
H         -6.50233      -19.91005        0.31666
H         -5.25960      -24.65087        2.21190
H         -4.78862      -23.40001        7.63479
H         -4.39778      -26.46756        3.73842
H         -5.87703      -21.70970        6.21307
