94

C         12.37033        0.93296        4.09214
C         12.49185        0.11075        5.20523
F         13.43310        0.37896        6.11925
C         11.66593       -0.99147        5.37641
C         10.69457       -1.28297        4.41700
C         10.55742       -0.47895        3.27392
C         11.41320        0.64894        3.11034
C         11.33976        1.43715        1.94768
C         10.46888        1.07892        0.92677
C          9.62071       -0.02165        1.12224
C          9.62705       -0.79307        2.27486
C          8.85276       -0.30888       -0.10023
O          7.99695       -1.15927       -0.23298
C          9.33503        0.66468       -1.13107
C         10.39860        1.47707       -0.51269
C         11.47275        2.04115       -1.10890
C         12.02672        1.47836       -2.29618
N         12.51744        0.92058       -3.18783
C         12.14905        3.15793       -0.53540
N         12.64820        4.08105       -0.04200
C          8.64653        0.75167       -2.28156
C          8.87110        1.76652       -3.33733
N          9.74195        2.73960       -3.26440
C          9.68176        3.31546       -4.48809
C          8.66458        2.69225       -5.28995
C          8.65483        3.34179       -6.62795
O          7.93426        3.12082       -7.57497
C          9.76662        4.32273       -6.51560
C         10.32344        4.24087       -5.19032
N         11.35856        5.10729       -5.05649
C         11.41293        5.67074       -6.23183
C         10.41915        5.22682       -7.23567
C          8.07271        1.71620       -4.60877
C          7.02401        0.81401       -4.96304
C          5.80584        1.21921       -5.35699
C          4.71818        0.29824       -5.69870
C          3.39289        0.63807       -5.49834
N          2.35263       -0.15703       -5.81968
C          2.66183       -1.34804       -6.36848
N          3.90681       -1.79081       -6.62083
C          4.90286       -0.93947       -6.29185
C          1.52388       -2.19802       -6.79200
N          0.37130       -1.69763       -7.19479
C         -0.37094       -2.79321       -7.47514
C          0.37572       -3.99378       -7.20579
C         -0.50409       -5.16693       -7.47556
O         -0.27528       -6.35096       -7.34176
C         -1.75153       -4.52439       -7.95744
C         -1.58538       -3.09488       -7.92055
N         -2.72001       -2.48180       -8.34532
C         -3.50421       -3.48608       -8.62205
C         -2.95961       -4.84393       -8.40321
C          1.60997       -3.70435       -6.79756
C          2.67493       -4.56104       -6.35963
C          2.83893       -5.82267       -6.78417
C          3.88947       -6.69852       -6.32393
C          3.71002       -7.97356       -5.95309
C          4.89300       -8.89466       -5.94554
O          6.06835       -8.61392       -5.85874
C          4.33002      -10.23938       -6.17603
C          5.04634      -11.39100       -6.46403
C          4.32627      -12.53750       -6.82378
C          2.91459      -12.49328       -6.90161
C          2.21282      -11.31319       -6.57554
C          2.92522      -10.18680       -6.18420
C          2.51835       -8.81133       -5.78332
C          1.39873       -8.49744       -5.07947
C          1.23200       -7.23479       -4.43710
N          1.09943       -6.23686       -3.85826
C          0.40629       -9.47085       -4.77362
N         -0.36312      -10.30079       -4.51422
C          2.16156      -13.63439       -7.34454
N          1.53817      -14.53705       -7.72178
C          5.05479      -13.73380       -7.13771
N          5.66259      -14.69152       -7.38487
H         13.05045        1.77521        3.99354
H         11.79040       -1.62249        6.25079
H         10.06350       -2.15827        4.55849
H         12.02839        2.26992        1.84873
H          8.97269       -1.65746        2.35436
H          7.83716        0.04857       -2.46228
H         12.14620        6.44282       -6.50997
H         10.30472        5.55238       -8.24992
H          7.25842       -0.24328       -4.85943
H          5.56513        2.28058       -5.41527
H          3.10693        1.58998       -5.05659
H          5.89599       -1.29943       -6.54774
H         -4.53092       -3.37708       -9.00185
H         -3.43627       -5.78961       -8.56314
H          3.35114       -4.15628       -5.60939
H          2.17111       -6.25017       -7.53006
H          4.90232       -6.30888       -6.43980
H          6.13427      -11.38019       -6.43559
H          1.12785      -11.29462       -6.66722
