120

C         -0.46077        2.19872        1.41707
C         -1.85925        2.23894        1.38677
C         -2.62255        1.22419        1.97670
C         -2.00441        0.16216        2.63609
C         -0.61796        0.14716        2.71690
C          0.16603        1.15174        2.08046
C          1.61647        0.77708        2.21070
C          2.69481        1.58515        2.09992
C          2.58883        2.96606        1.77380
N          2.50367        4.09220        1.50698
C          4.00855        1.11698        2.39081
N          5.06985        0.70981        2.62356
C          1.60403       -0.64768        2.65261
C          0.30940       -0.82558        3.35550
C          0.08989       -1.51510        4.49931
C          1.15393       -2.15731        5.19671
N          2.02593       -2.65203        5.78370
C         -1.18392       -1.56080        5.12906
N         -2.23097       -1.60198        5.63043
C          2.41310       -1.60766        2.14787
C          2.17302       -3.01461        2.22351
S          0.60130       -3.70517        1.92492
C          1.09240       -5.29929        2.30989
C          2.45271       -5.34350        2.44783
C          3.01932       -4.06689        2.40393
C          4.42087       -4.18732        2.65649
C          4.82999       -5.51288        2.90563
C          6.16130       -5.97243        3.28314
O          7.19371       -5.32162        3.17808
O          6.09319       -7.23279        3.80239
C          7.32716       -7.82505        4.19040
S          3.56712       -6.71908        2.72446
C          0.16589       -6.39051        2.44443
C         -1.07558       -6.36652        3.08872
C         -1.70122       -7.63077        3.03202
C         -0.92601       -8.53775        2.34815
S          0.49858       -7.94672        1.75315
C         -1.60266       -9.76691        2.28395
C         -2.81579       -9.64075        2.91874
C         -2.94487       -8.28320        3.45164
C         -3.96462       -7.76688        4.16106
C         -3.93668       -6.41937        4.62094
N         -3.89855       -5.32119        4.97934
C         -5.11312       -8.53676        4.49437
N         -6.04876       -9.17353        4.75888
C         -3.56529      -10.82897        2.83897
C         -2.85577      -11.82295        2.15790
S         -1.30101      -11.25647        1.62472
C         -3.28290      -13.16082        1.85568
C         -2.50342      -14.28966        1.79955
C         -3.18850      -15.47731        1.34152
C         -2.72524      -16.79836        1.10587
C         -1.31741      -17.18110        1.43173
C         -0.83762      -18.32412        2.06228
C          0.58172      -18.35694        2.19584
C          1.17317      -17.20433        1.73365
S          0.02387      -16.20308        0.95963
C          2.60685      -16.79049        1.80468
Cl         1.39919      -19.69317        2.88606
C         -3.60836      -17.77781        0.59584
C         -4.96162      -17.49939        0.34839
C         -5.42314      -16.16210        0.54703
C         -4.53720      -15.18672        1.07576
S         -4.89542      -13.54827        1.54001
C         -6.79683      -15.73984        0.11219
C         -7.21220      -14.54101       -0.46548
C         -8.58788      -14.51270       -0.83557
C         -9.19171      -15.72957       -0.63360
S         -8.19023      -16.73966        0.31627
C        -10.52958      -16.20927       -1.08670
Cl        -9.31403      -13.13017       -1.53555
C         -5.62843      -18.71695       -0.07302
C         -4.84406      -19.85240       -0.11943
S         -3.22308      -19.39527        0.09629
C         -5.27078      -21.17340       -0.46918
C         -4.74446      -22.34735       -0.06732
C         -5.04180      -23.66857       -0.71024
C         -6.25618      -24.17469       -1.02457
C         -7.45280      -23.43882       -0.80728
N         -8.42256      -22.81394       -0.63720
C         -6.43297      -25.50580       -1.49942
N         -6.57912      -26.59131       -1.88656
C         -3.72646      -24.39420       -0.74181
C         -2.82356      -23.70502        0.10905
C         -1.48141      -24.05377        0.17331
C         -1.05075      -25.16758       -0.54434
C         -1.94769      -25.89092       -1.34005
C         -3.28398      -25.49330       -1.46509
C         -3.56919      -22.61213        0.78843
C         -3.39783      -22.25631        2.08381
C         -2.38197      -22.84345        2.89168
N         -1.56020      -23.35668        3.53194
C         -4.31390      -21.39868        2.75883
N         -5.05293      -20.70813        3.32083
H          0.08435        2.98110        0.90087
H         -2.36360        3.05981        0.87951
H         -3.70884        1.26040        1.91468
H         -2.62330       -0.62794        3.05017
H          3.27977       -1.33692        1.54911
H          5.11278       -3.35342        2.72199
H          7.09755       -8.79519        4.64198
H          7.83904       -7.20886        4.93385
H          7.95298       -7.99278        3.31031
H         -1.47291       -5.47795        3.56259
H         -4.55796      -10.99187        3.23025
H         -1.45219      -14.24460        2.04510
H         -1.47468      -19.12482        2.41456
H          2.86190      -16.48150        2.82539
H          2.82856      -15.95069        1.13816
H          3.26778      -17.61720        1.52563
H         -6.55743      -13.70066       -0.65383
H        -11.23732      -16.25897       -0.25520
H        -10.44818      -17.20426       -1.54007
H        -10.95070      -15.55112       -1.85490
H         -6.68304      -18.78947       -0.29581
H         -6.09340      -21.17933       -1.18197
H         -0.76163      -23.48671        0.75654
H         -0.00856      -25.47521       -0.48699
H         -1.59255      -26.76399       -1.88487
H         -3.92328      -26.05429       -2.13758
