96

C          5.25029        6.61383        5.81805
C          6.06041        5.56178        6.08704
C          7.00975        5.57342        7.14776
N          7.78206        5.58697        8.01580
C          6.07252        4.39885        5.26437
N          6.06132        3.45290        4.59012
C          5.24281        7.93250        6.51081
C          4.67270        8.87343        5.64014
C          4.42734       10.18915        5.99181
C          4.74415       10.59341        7.29316
C          5.34612        9.67293        8.19722
C          5.59449        8.34005        7.79377
C          5.65777       10.10903        9.49631
C          5.35834       11.41081        9.90718
C          4.74431       12.29727        9.02774
C          4.44473       11.89305        7.72687
C          4.26526        8.22846        4.38029
O          3.99363        8.79122        3.34193
C          4.33205        6.75408        4.65835
C          3.50077        5.84355        4.12452
C          2.47270        6.15542        3.18472
C          2.51541        6.20687        1.80891
C          1.27025        6.60104        1.21176
Cl         1.22122        6.83151       -0.48767
C          0.25719        6.80880        2.13950
S          0.86994        6.42767        3.72651
C         -1.12252        7.28936        1.98840
C         -2.07433        7.10203        0.99353
Cl        -1.96228        6.14350       -0.42551
C         -3.31308        7.78160        1.25691
C         -3.32663        8.45035        2.46331
S         -1.80681        8.29589        3.23009
C         -4.44003        9.16526        3.06273
C         -5.78554        8.93825        2.85412
C         -6.63103        9.78475        3.64314
Cl        -8.33550        9.58112        3.54342
C         -5.92335       10.67782        4.43864
S         -4.23238       10.46787        4.15356
C         -6.40039       11.69553        5.37679
C         -5.82190       12.17324        6.54623
Cl        -4.35046       11.67730        7.28406
C         -6.60352       13.18161        7.19009
C         -7.78875       13.45847        6.53917
S         -7.87961       12.54443        5.09223
C         -8.83386       14.38215        6.94761
C        -10.01834       14.68216        6.30454
C        -10.79106       15.68338        6.97566
Cl       -12.26403       16.21758        6.27061
C        -10.19840       16.13316        8.14663
S         -8.73324       15.26496        8.41357
C        -10.63875       17.15355        9.09233
C         -9.88585       18.06998        9.80852
Cl        -8.17831       18.26964        9.81938
C        -10.68727       18.96782       10.57220
C        -12.03867       18.68670       10.55111
S        -12.30821       17.35107        9.48717
C        -13.17185       19.31750       11.16732
C        -13.20945       19.96352       12.35029
C        -14.38216       20.60800       13.03870
C        -15.52722       21.07514       12.48235
C        -16.54733       21.74455       13.22871
N        -17.37794       22.28360       13.82024
C        -15.79922       20.99240       11.08546
N        -16.02504       20.92952        9.94685
C        -13.98236       20.80542       14.47457
C        -12.62745       20.49627       14.59738
C        -12.07448       20.01668       13.33775
O        -10.90718       19.70978       13.22786
C        -11.90292       20.58146       15.77540
C        -12.56516       20.99637       16.92438
C        -13.94964       21.30909       16.85983
C        -14.64924       21.20120       15.63034
C        -14.59170       21.72287       18.03691
C        -13.88801       21.82341       19.24114
C        -12.53322       21.50872       19.29245
C        -11.87387       21.09527       18.13788
H          3.95357       10.86164        5.28180
H          6.01224        7.64645        8.51740
H          6.13117        9.43628       10.20898
H          5.59852       11.73121       10.91842
H          4.49645       13.30476        9.35323
H          3.95975       12.60135        7.05746
H          3.50065        4.81697        4.48087
H          3.41971        6.01461        1.24324
H         -4.16315        7.75496        0.58398
H         -6.16533        8.17228        2.18766
H         -6.30264       13.66247        8.11389
H        -10.32544       14.22390        5.37181
H        -10.25124       19.78700       11.12782
H        -14.08808       19.20798       10.59469
H        -10.84835       20.31777       15.78306
H        -15.71075       21.42652       15.63557
H        -15.64978       21.97655       18.02920
H        -14.40037       22.14961       20.14319
H        -11.98776       21.58437       20.22960
H        -10.81389       20.85044       18.19425
