153

C          4.34916        2.38581       -1.64276
C          4.31668        1.23308       -2.34946
C          5.35924        0.26650       -2.27085
N          6.21342       -0.51558       -2.19694
C          3.26990        0.94795       -3.27409
N          2.40360        0.71710       -4.01112
C          5.43257        2.86458       -0.73568
C          5.32868        4.26194       -0.64717
C          6.08098        5.04266        0.20999
C          6.98838        4.39407        1.04670
C          7.14839        2.97877        0.96243
C          6.36647        2.21962        0.06079
C          8.07023        2.35841        1.81698
C          8.79427        3.10375        2.75128
C          8.61440        4.48122        2.84384
C          7.72072        5.12533        1.99108
C          4.22225        4.74176       -1.48200
O          4.09894        5.86117       -1.92693
C          3.40252        3.51663       -1.74972
C          2.05877        3.48124       -1.73323
C          1.25211        4.63046       -1.49164
C          0.69270        5.07398       -0.31568
C          0.00958        6.35813       -0.40700
C         -0.52000        7.22766        0.59252
C         -0.28914        6.92917        2.04590
C         -1.07785        7.16031        3.17052
C         -0.50181        6.68802        4.39030
C          0.68659        6.03118        4.17775
S          1.22456        6.27759        2.58053
C          1.51816        5.24275        5.13216
Cl        -1.26694        6.89656        5.90728
C         -1.23195        8.39303        0.20764
C         -1.47363        8.70456       -1.14390
C         -0.91156        7.85647       -2.14917
C         -0.13889        6.72521       -1.75650
S          0.74005        5.61209       -2.76365
C         -1.10996        8.15690       -3.61721
C         -0.27389        7.92942       -4.70842
C         -0.81959        8.31332       -5.96938
C         -2.03416        8.93928       -5.83764
S         -2.59590        8.81031       -4.23162
C         -2.86672        9.59920       -6.88869
Cl         0.00261        8.03017       -7.44387
C         -2.28397        9.90822       -1.23086
C         -2.65019       10.45957       -0.02812
S         -1.87609        9.63894        1.23356
C         -3.52107       11.58502        0.21312
C         -4.32540       11.77792        1.30855
C         -5.00727       13.05040        1.34539
C         -5.76578       13.66823        2.37608
C         -5.82312       13.05255        3.74862
C         -6.85538       13.00967        4.68231
C         -6.54432       12.27584        5.86597
C         -5.29350       11.70997        5.81002
S         -4.42697       12.31041        4.46654
C         -4.66496       10.74144        6.75750
Cl        -7.65975       12.09958        7.15271
C         -6.47097       14.86048        2.09727
C         -6.48246       15.43226        0.81265
C         -5.64340       14.86816       -0.20122
C         -4.88835       13.70096        0.10285
S         -3.69212       12.88239       -0.86396
C         -5.57209       15.49295       -1.57757
C         -5.33823       14.92779       -2.83090
C         -5.40355       15.85420       -3.92149
C         -5.71610       17.12594       -3.50615
S         -5.72187       17.20802       -1.80369
C         -5.99642       18.34766       -4.32251
Cl        -5.15518       15.37528       -5.54739
C         -7.42631       16.53293        0.78914
C         -7.93711       16.90107        2.01205
S         -7.38013       15.83504        3.20024
C         -8.84415       18.01335        2.34242
C         -9.72287       18.51801        1.36825
C        -10.59574       19.54722        1.70007
C        -10.57632       20.11414        2.98895
C         -9.70244       19.65225        3.95433
C         -8.84104       18.60433        3.62533
C        -11.53786       21.18565        3.05636
C        -12.17712       21.31643        1.80690
C        -11.63907       20.25508        0.82044
C        -11.00086       20.90193       -0.43640
C         -9.81857       21.83745       -0.18361
C        -12.80739       19.29038        0.45158
C        -12.49616       18.17607       -0.54686
C        -13.14670       22.29478        1.60895
C        -13.48712       23.14484        2.67614
C        -12.82212       23.00924        3.91376
C        -11.85070       22.02561        4.11077
C        -14.47908       24.20936        2.44833
C        -15.29106       24.69161        3.40247
C        -16.21406       25.78127        3.16987
C        -16.71977       26.60434        4.10163
C        -16.41084       26.61753        5.55925
O        -15.68809       25.81261        6.12898
N        -17.05741       27.69549        6.16743
C        -17.84573       28.49719        5.34249
C        -18.58070       29.59171        5.65927
C        -18.67007       30.12273        6.96734
N        -18.72983       30.56177        8.05110
C        -19.32901       30.29947        4.67293
N        -19.94600       30.89042        3.88272
S        -17.79646       27.89138        3.69025
C        -16.84631       27.89420        7.59008
H          5.91352        6.11489        0.25723
H          6.47592        1.13868        0.05048
H          8.22798        1.28259        1.77220
H          9.49630        2.60467        3.41458
H          9.16921        5.05624        3.58114
H          7.59056        6.20252        2.08102
H          1.52472        2.53719       -1.78065
H          0.82892        4.52015        0.60706
H         -2.04592        7.64354        3.14658
H          1.74091        5.82710        6.02898
H          2.47002        4.92925        4.68962
H          0.98559        4.33299        5.43425
H          0.70881        7.48540       -4.63885
H         -2.24302       10.20126       -7.56076
H         -3.61503       10.27457       -6.46003
H         -3.38708        8.84855       -7.49133
H         -2.62835       10.35369       -2.15110
H         -4.38621       11.03644        2.09414
H         -7.82436       13.46792        4.53725
H         -4.59599       11.16957        7.76218
H         -3.65927       10.44196        6.44511
H         -5.27070        9.82874        6.81820
H         -5.14275       13.87724       -2.99683
H         -5.25475       18.47459       -5.11783
H         -5.98953       19.26117       -3.71807
H         -6.98513       18.27037       -4.79059
H         -7.69002       17.09127       -0.09591
H         -9.72947       18.11246        0.36250
H         -9.67145       20.08848        4.94669
H         -8.14917       18.26254        4.39168
H        -11.76519       21.46025       -0.99247
H        -10.63709       20.11860       -1.11125
H        -10.11817       22.73005        0.37217
H         -9.40008       22.16597       -1.14132
H         -9.01304       21.33885        0.36363
H        -13.63786       19.87243        0.03067
H        -13.20201       18.81973        1.36296
H        -12.14221       18.56794       -1.50408
H        -13.40351       17.59753       -0.75075
H        -11.75842       17.47004       -0.16069
H        -13.63736       22.39377        0.64575
H        -13.04381       23.68113        4.74132
H        -11.35232       21.93726        5.07039
H        -14.49778       24.62602        1.44501
H        -15.26818       24.26517        4.40273
H        -16.49455       25.93459        2.12753
H        -16.17162       27.14124        8.00892
H        -17.80126       27.80597        8.11454
H        -16.38611       28.87212        7.75914
