108

C          1.50507        2.59423        1.78696
C          0.48834        2.00502        2.45851
C          0.45730        1.95860        3.87748
N          0.44525        1.92428        5.04049
C         -0.52035        1.25828        1.78447
N         -1.32457        0.60637        1.25563
C          2.76507        3.05676        2.39077
C          3.79924        2.71851        1.50526
C          5.13194        2.90411        1.81907
C          5.43385        3.56194        3.02208
C          4.38257        4.04676        3.85722
C          3.04275        3.76575        3.54541
C          4.70010        4.81528        4.98483
C          6.02979        5.06958        5.31866
C          7.05755        4.54014        4.54269
C          6.76284        3.79369        3.40028
C          3.22385        2.31309        0.19703
O          3.82454        1.96376       -0.79506
C          1.74512        2.55263        0.34665
C          1.03078        2.99973       -0.70022
C         -0.20436        3.71449       -0.58840
S         -0.47537        4.88892        0.66965
C         -2.02522        5.35129        0.10244
C         -2.31262        4.67407       -1.05152
C         -1.29384        3.78243       -1.40272
C         -1.66976        3.12041       -2.61087
C         -2.90748        3.55446       -3.12654
C         -3.53766        3.12565       -4.37216
O         -3.08161        2.28146       -5.13268
O         -4.68233        3.83084       -4.59341
C         -5.37142        3.63309       -5.82549
S         -3.74193        4.73547       -2.13361
C         -2.84398        6.31802        0.79249
C         -2.90687        6.52471        2.17333
C         -3.82444        7.54712        2.51325
C         -4.43639        8.03363        1.38969
S         -3.88608        7.42221       -0.04553
C         -5.40468        8.97109        1.77488
C         -5.41732        9.10134        3.14281
C         -4.38049        8.22657        3.70178
C         -3.93747        8.07327        4.96965
C         -2.68400        7.22939        5.13431
N         -1.64415        6.52933        5.27091
C         -4.56897        8.74047        6.18062
N         -5.09285        9.29397        7.18522
C         -6.38741       10.05782        3.53710
C         -7.08830       10.61295        2.43749
S         -6.48212        9.89483        0.94571
C         -8.14771       11.61453        2.36889
C         -8.58035       12.19112        3.51081
C         -9.63292       13.18004        3.53664
C        -10.31296       13.63987        2.32091
C        -10.03932       13.20446        1.09590
S         -8.82214       12.02294        0.77014
C        -11.28511       14.57395        2.72219
C        -11.25504       14.70596        4.08800
C        -12.18266       15.64654        4.56580
C        -12.90953       16.17789        3.51026
S        -12.42708       15.53450        1.97338
C        -10.22677       13.81902        4.59058
C         -9.88312       13.62671        5.98008
C        -10.74197       13.75038        7.00168
C        -10.40388       13.48504        8.37991
C         -9.98927       12.31681        8.89595
C         -9.75090       11.95273       10.31155
C         -9.32655       12.77386       11.30370
C         -9.02853       12.30691       12.61545
N         -8.79383       11.93341       13.68762
C         -9.09089       14.16661       11.10416
N         -8.91130       15.29980       10.94500
C         -9.90659       10.47042       10.39407
C         -9.95771        9.95818        9.09201
C         -9.92164       11.03782        8.10329
O         -9.87333       10.86534        6.90342
C        -10.12409        8.61591        8.79217
C        -10.28948        7.72491        9.85216
C        -10.26809        8.20841       11.19066
C        -10.06385        9.58246       11.45057
C        -10.48271        7.30010       12.23732
C        -10.72760        5.95036       11.97412
C        -10.73847        5.48290       10.66312
C        -10.51226        6.36355        9.60686
H          5.90514        2.59204        1.12429
H          2.24434        4.13072        4.18751
H          3.91335        5.23419        5.60983
H          6.26221        5.67753        6.18948
H          8.09311        4.72077        4.81972
H          7.58382        3.40253        2.80302
H          1.47031        2.95187       -1.69648
H         -1.07478        2.36495       -3.11300
H         -6.44293        3.61903       -5.61043
H         -5.10051        2.70202       -6.32871
H         -5.16152        4.48758       -6.47497
H         -2.32082        5.92807        2.85957
H         -6.58034       10.34739        4.56285
H         -8.16180       11.91904        4.47260
H        -10.59186       13.58109        0.24105
H        -12.33296       15.93756        5.59679
H        -13.69652       16.91704        3.55543
H         -8.87141       13.28150        6.18116
H        -11.76988       14.06043        6.83592
H        -10.61310       14.34084        9.01685
H        -10.17008        8.29260        7.75609
H        -10.07582        9.91698       12.48303
H        -10.47740        7.63733       13.27198
H        -10.91518        5.26373       12.79583
H        -10.93068        4.43219       10.46057
H        -10.52844        5.97971        8.58867
