111

C          7.72969        5.92255      -12.34767
C          6.93793        6.52028      -13.31949
F          7.34612        7.66241      -13.88748
C          5.71711        5.97099      -13.68583
C          5.27501        4.79579      -13.07436
C          6.03897        4.18563      -12.06678
C          7.28439        4.76616      -11.69526
C          8.01345        4.25003      -10.61047
C          7.44663        3.26196       -9.81135
C          6.25705        2.66070      -10.23996
C          5.56007        3.06934      -11.36890
C          5.73411        1.75472       -9.20848
O          4.78328        1.00988       -9.32651
C          6.58153        1.97292       -7.98799
C          7.64888        2.92846       -8.35896
C          8.25226        3.84759       -7.56343
C          7.53311        4.44196       -6.48742
N          6.87730        4.99247       -5.70599
C          9.48522        4.47357       -7.93421
N         10.47923        4.96392       -8.27040
C          6.27487        1.25136       -6.89631
C          6.95799        1.26326       -5.57962
N          8.00978        1.98136       -5.27416
C          8.15862        1.78515       -3.93657
C          7.17370        0.84977       -3.46297
C          7.36735        0.63708       -2.00677
O          6.77017       -0.10168       -1.25657
C          8.47052        1.57714       -1.70117
C          8.89323        2.21728       -2.91784
N          9.89586        3.09828       -2.65310
C         10.04270        2.99031       -1.36101
C          9.16964        2.02008       -0.66248
C          6.38460        0.44697       -4.45257
C          5.33574       -0.53147       -4.45003
C          4.29914       -0.47978       -3.59934
C          3.26128       -1.46160       -3.50425
S          1.70570       -0.84891       -3.03976
C          0.93248       -2.38987       -3.02456
C          1.82690       -3.34997       -3.45761
C          3.17495       -2.83800       -3.66881
C          4.25365       -3.67760       -4.01570
C          3.89345       -5.04551       -4.21351
C          5.00852       -5.95057       -4.63345
O          6.16519       -5.59512       -4.79995
O          4.65852       -7.22852       -4.84270
C          2.54810       -5.51241       -4.03363
O          2.24369       -6.83791       -4.23554
C          1.46668       -4.68952       -3.65461
C         -0.43732       -2.40117       -2.62008
C         -1.00774       -3.38904       -1.91323
C         -2.44542       -3.24813       -1.59217
N         -3.30678       -2.59318       -2.33555
C         -4.49050       -2.80966       -1.70944
C         -4.29793       -3.65011       -0.55863
C         -5.60390       -3.86748        0.10290
O         -5.86138       -4.53165        1.08462
C         -6.52569       -3.08439       -0.75224
C         -5.77404       -2.47788       -1.81986
N         -6.60082       -1.75017       -2.61485
C         -7.76577       -1.92149       -2.05182
C         -7.81224       -2.77372       -0.84403
C         -3.01461       -3.94857       -0.39585
C         -2.37488       -4.66426        0.66696
C         -1.42345       -4.19494        1.49312
C         -0.92233       -2.84324        1.48766
C          0.26908       -2.30752        1.79242
C          0.26823       -0.80069        1.70672
O         -0.65978       -0.06098        1.44548
C          1.62929       -0.36211        1.98875
C          2.07173        0.94995        1.87926
C          3.43684        1.19888        2.01968
C          4.31435        0.11847        2.30907
C          5.68925        0.37378        2.40980
C          6.18036        1.65946        2.20843
C          5.32938        2.71760        1.92213
C          3.95640        2.49057        1.83684
F          7.50005        1.87872        2.28086
C          3.80805       -1.19498        2.44964
C          2.45096       -1.45518        2.27841
C          1.63372       -2.72335        2.19537
C          2.13643       -3.96579        2.40806
C          1.44847       -5.17355        2.11345
N          0.96294       -6.19891        1.86410
C          3.43979       -4.20133        2.94228
N          4.48573       -4.41325        3.39687
H          8.66262        6.40724      -12.07021
H          5.10794        6.47215      -14.43135
H          4.30484        4.39086      -13.35536
H          8.94753        4.73810      -10.35515
H          4.60200        2.61483      -11.60894
H          5.40052        0.60407       -6.94263
H         10.76318        3.57396       -0.76916
H          9.12278        1.78329        0.37975
H          5.45034       -1.34196       -5.16272
H          4.20012        0.39275       -2.95090
H          5.27963       -3.34643       -4.12428
H          5.46442       -7.69159       -5.13896
H          1.44083       -7.07668       -3.74665
H          0.45916       -5.07271       -3.57529
H         -1.03047       -1.51819       -2.86025
H         -0.49388       -4.27857       -1.57581
H         -8.69959       -1.47271       -2.42258
H         -8.65406       -3.04394       -0.24026
H         -2.75811       -5.66976        0.84450
H         -1.10489       -4.84726        2.30038
H         -1.70937       -2.13843        1.19558
H          1.36694        1.74099        1.63512
H          6.39670       -0.42428        2.61861
H          5.73806        3.70964        1.75899
H          3.29789        3.32526        1.60341
H          4.53115       -1.98066        2.63576
