82

C         -2.55547        6.30462        7.18836
S         -3.93726        6.29922        6.17919
C         -2.90716        6.26392        4.80109
C         -1.58377        6.26748        5.19618
N         -1.39603        6.29948        6.57081
C         -0.41710        6.27605        4.36577
C         -0.17176        6.91536        3.19987
N         -1.12937        7.69186        2.45724
O         -1.07352        7.59176        1.22388
O         -1.90718        8.42472        3.07482
C          1.23075        6.91993        2.85069
C          1.91374        6.30140        3.82412
C          0.93888        5.75909        4.77522
C          1.24238        4.87922        5.75400
C          0.29818        3.91175        6.31875
C          0.95905        3.16412        7.21411
C          2.31870        3.65412        7.29877
N          3.23327        3.20475        8.32489
O          3.07851        2.04527        8.73354
O          4.06961        3.99826        8.77344
C          2.55190        4.66492        6.43089
C          3.73715        5.49548        6.37130
C          4.76498        5.32331        5.52588
C          5.90093        6.19517        5.52782
S          6.52217        6.70689        4.00182
C          7.78597        7.69592        4.67846
C          7.78154        7.55010        6.05639
C          6.67950        6.73225        6.53763
C          6.45681        6.47059        7.89898
C          7.37829        7.09455        8.76784
C          7.20298        6.93120       10.25472
C          8.46478        7.88575        8.28960
C          8.72754        8.12396        6.92402
C          8.55456        8.45103        3.72829
C          9.21118        9.58178        4.03852
C          9.92193       10.50884        3.12192
C         10.10522       10.12542        1.77608
C         10.78129       10.97842        0.92864
C         11.29690       12.17916        1.35540
C         11.95088       12.80764        0.20590
O         12.49343       13.89504        0.23923
N         11.80340       11.94219       -0.84484
C         11.08885       10.83178       -0.49194
O         10.73589        9.89180       -1.17129
C         12.27074       12.20200       -2.19157
C         11.22682       12.94146       -3.01243
C         11.15119       12.60391        2.66081
C         10.44172       11.77897        3.56650
C         10.35816       12.32480        4.94620
C          9.27569       12.30253        5.74213
C          9.31102       12.85584        7.05413
S          8.47806       12.03205        8.33553
C          8.92227       13.27145        9.42776
C          9.66581       14.22250        8.76756
N          9.91640       13.96435        7.43336
H         -2.63324        6.30975        8.26848
H         -3.33683        6.27106        3.81020
H          1.64549        7.37425        1.96312
H          2.97560        6.13639        3.80551
H         -0.72864        3.76680        6.02279
H          0.56112        2.34301        7.79104
H          3.74205        6.30786        7.09763
H          4.72572        4.54184        4.77002
H          5.66470        5.84538        8.28479
H          6.45305        6.16782       10.48726
H          6.87595        7.87759       10.69681
H          8.14589        6.62066       10.71498
H          9.14511        8.32713        9.01954
H          9.60433        8.68485        6.63486
H          8.51250        8.10793        2.69885
H          9.20861        9.90238        5.06681
H          9.74577        9.18564        1.37215
H         12.50203       11.24493       -2.67337
H         13.18879       12.79640       -2.13857
H         10.30523       12.35597       -3.09640
H         11.60291       13.13465       -4.02128
H         10.97132       13.90082       -2.55049
H         11.57029       13.56062        2.96452
H         11.26622       12.81431        5.30370
H          8.34263       11.85165        5.42222
H          8.61572       13.25570       10.46695
H         10.05397       15.12939        9.21193
