119

C         -0.00360       -0.00710       -2.71885
C         -0.81847       -1.08042       -2.60203
C         -0.31300       -2.41029       -2.64169
N          0.11642       -3.48758       -2.66739
C         -2.23928       -0.94699       -2.52199
N         -3.38975       -0.82561       -2.44829
C          1.46081       -0.01660       -2.97079
C          1.78155        1.15476       -3.67292
C          3.06816        1.49727       -4.04454
C          4.10888        0.67261       -3.60949
C          3.82247       -0.48407       -2.82392
C          2.48701       -0.83907       -2.53382
C          4.89276       -1.23275       -2.31383
C          6.21376       -0.86362       -2.57767
C          6.48607        0.24443       -3.37520
C          5.43954        1.00701       -3.89177
C          0.60201        2.03096       -3.75774
O          0.50051        3.03630       -4.42550
C         -0.40211        1.40622       -2.83457
C         -1.26058        2.04693       -2.02607
C         -1.35035        3.45853       -1.85889
S         -2.85708        4.13758       -1.39760
C         -2.19878        5.71454       -1.14575
C         -0.85222        5.72178       -1.46770
C         -0.38145        4.44259       -1.89701
C          0.00749        6.85727       -1.35351
N          0.72147        7.76085       -1.20029
C         -3.09746        6.71327       -0.67146
C         -2.73341        7.74100        0.11171
C         -3.71009        8.67047        0.60483
N         -3.99450        8.85067        1.96040
C         -3.30378        8.22523        3.06747
C         -2.07572        9.01699        3.48698
C         -5.03904        9.77764        2.15183
O         -5.55010       10.18522        3.17634
C         -5.38762       10.16269        0.77472
C         -4.51529        9.45334       -0.11633
C         -4.83887        9.85865       -1.48990
O         -4.29664        9.48754       -2.51035
N         -5.88370       10.79299       -1.29659
C         -6.40256       11.54782       -2.41546
C         -7.53296       10.82703       -3.12802
C         -6.20709       10.93347        0.05855
C         -7.18154       11.82875        0.62268
C         -8.51819       11.76265        0.48298
C         -9.31999       12.75834        1.11885
S         -9.70950       14.17225        0.23787
C        -10.30618       15.00673        1.62616
C        -10.19505       14.19424        2.74967
C         -9.88214       12.81313        2.38880
C         -9.96742       11.68456        3.40199
N        -10.73775       10.47936        2.85657
O        -11.96434       10.43574        3.03428
O        -10.07743        9.60623        2.27858
C        -10.66507       12.13938        4.70457
C        -10.09599       13.46478        5.19927
C        -10.35546       14.61535        4.20293
N         -9.36394       15.70822        4.60376
O         -8.21638       15.65653        4.13723
O         -9.75852       16.53244        5.44009
C        -10.70979       16.35974        1.41504
C        -11.69593       16.98368        2.08017
C        -12.09092       18.35279        1.77043
C        -12.54830       18.81521        0.59203
C        -12.82886       20.19971        0.13422
C        -13.14924       21.27264        0.90237
C        -13.47381       22.54919        0.35586
N        -13.72939       23.59043       -0.08065
C        -13.24476       21.20630        2.32256
N        -13.32876       21.15661        3.47869
C        -12.84704       20.15577       -1.36526
C        -12.80350       18.81526       -1.76538
C        -12.72960       17.92595       -0.60646
O        -12.83904       16.71892       -0.65745
C        -12.82648       18.39410       -3.08590
C        -12.92848       19.36331       -4.08351
C        -12.96962       20.73878       -3.72495
C        -12.90282       21.12308       -2.36349
C        -13.09824       21.69384       -4.74599
C        -13.19951       21.30490       -6.08439
C        -13.15306       19.95684       -6.42701
C        -13.00859       18.99069       -5.43280
H          3.25317        2.42126       -4.58519
H          2.28860       -1.71184       -1.91735
H          4.71045       -2.10205       -1.68473
H          7.03263       -1.44147       -2.15630
H          7.51530        0.52500       -3.58513
H          5.67538        1.87813       -4.50034
H         -1.85966        1.46995       -1.32391
H          0.65341        4.26255       -2.16615
H         -4.15077        6.59284       -0.92578
H         -1.71304        7.89957        0.44582
H         -3.03361        7.19775        2.80240
H         -3.99605        8.17191        3.91530
H         -1.34351        9.07412        2.67523
H         -1.59405        8.54420        4.34814
H         -2.34480       10.04183        3.76396
H         -5.58448       11.68542       -3.13555
H         -6.70663       12.54564       -2.08671
H         -7.20249        9.85517       -3.51042
H         -7.88470       11.42205       -3.97668
H         -8.37681       10.65228       -2.45602
H         -6.75165       12.58408        1.28323
H         -9.00095       10.99865       -0.11887
H         -8.95913       11.32071        3.63312
H        -10.54272       11.37017        5.47702
H        -11.74651       12.27591        4.56726
H         -9.02192       13.33026        5.38471
H        -10.54469       13.71825        6.16862
H        -11.35792       15.02761        4.36228
H        -10.23038       16.88617        0.59050
H        -12.25028       16.51355        2.88633
H        -11.93621       19.01418        2.61866
H        -12.78134       17.33331       -3.31796
H        -12.90902       22.18448       -2.13763
H        -13.14226       22.75511       -4.50820
H        -13.32175       22.05667       -6.86051
H        -13.23710       19.65508       -7.46813
H        -12.97684       17.94143       -5.72031
