111

C         -8.98482       -0.31253        1.60982
C         -7.91537       -0.08898        0.74628
F         -7.25813        1.07706        0.80624
C         -7.51874       -1.06776       -0.15287
F         -6.45351       -0.86869       -0.94038
C         -8.21857       -2.26609       -0.24452
C         -9.32237       -2.50039        0.58928
C         -9.68356       -1.52955        1.57201
C        -10.69297       -1.81705        2.51820
C        -11.33993       -3.04604        2.48027
C        -11.02955       -3.93373        1.43941
C        -10.04422       -3.69358        0.49500
C        -11.69595       -5.22773        1.65284
O        -11.81318       -6.12280        0.84524
C        -12.12489       -5.19436        3.08919
C        -12.22620       -3.76005        3.45012
C        -13.03004       -3.19907        4.38422
C        -13.87524       -3.97866        5.22743
N        -14.54387       -4.59959        5.94016
C        -13.11886       -1.78689        4.56478
N        -13.17114       -0.63686        4.70045
C        -12.04946       -6.27148        3.89032
C        -11.67281       -7.63320        3.51518
C        -12.46014       -8.73569        3.62518
N        -13.81242       -8.73712        4.13350
O        -14.56130       -9.63309        3.71966
O        -14.13381       -7.87767        4.96336
C        -11.83656       -9.92067        3.08364
C        -10.65276       -9.57793        2.56121
C        -10.45597       -8.14145        2.78110
C         -9.36912       -7.45716        2.36115
C         -8.93171       -6.16275        2.88772
C         -7.85558       -5.77210        2.18821
C         -7.57039       -6.78188        1.19178
N         -6.52579       -6.63483        0.20093
O         -6.65772       -7.18629       -0.89775
O         -5.57127       -5.90793        0.51318
C         -8.41878       -7.83069        1.26883
C         -8.36603       -9.00508        0.42288
C         -9.33669       -9.45360       -0.39375
C         -9.15472      -10.63844       -1.18524
S         -9.97904      -10.74829       -2.70780
C         -9.19563      -12.21756       -3.17427
C         -8.31559      -12.61015       -2.18720
C         -8.41270      -11.79591       -0.99517
C         -7.74598      -12.11222        0.20037
C         -6.88928      -13.23112        0.09758
C         -6.07322      -13.63461        1.29951
C         -6.74510      -13.97973       -1.11603
C         -7.47199      -13.72296       -2.30137
C         -9.57587      -12.83169       -4.40346
C         -8.94021      -12.53398       -5.54556
C         -9.37219      -13.08141       -6.79340
O        -10.44683      -13.93193       -6.92120
C        -10.65038      -14.26263       -8.24513
C         -9.66156      -13.62082       -8.97584
C         -8.86436      -12.88582       -8.06952
C         -7.73304      -12.07705       -8.38420
N         -6.81123      -11.41688       -8.62571
C         -9.48221      -13.71792      -10.39111
N         -9.33060      -13.78507      -11.53730
C        -11.70189      -15.12473       -8.67196
C        -12.16535      -16.06880       -7.83890
C        -13.20138      -17.00797       -8.20254
C        -13.33783      -18.25560       -7.73154
C        -14.63791      -18.96637       -7.95271
O        -15.52235      -18.68148       -8.73191
C        -14.65806      -20.06477       -6.97113
C        -15.68906      -20.96996       -6.78317
C        -15.53170      -21.94958       -5.79692
C        -14.36568      -21.94493       -4.97217
C        -14.22670      -22.92669       -3.98021
C        -15.19807      -23.91156       -3.82997
C        -16.32016      -23.92613       -4.64601
C        -16.49996      -22.94782       -5.61837
F        -17.23962      -24.89112       -4.51040
F        -15.03116      -24.85773       -2.89612
C        -13.35165      -20.98842       -5.18013
C        -13.46971      -20.08222       -6.22470
C        -12.52731      -19.10422       -6.84352
C        -11.18040      -19.24011       -6.85608
C        -10.35867      -18.58191       -7.81865
N         -9.67896      -18.08616       -8.62107
C        -10.48286      -20.15448       -6.01199
N         -9.92182      -20.88666       -5.30911
H         -9.25055        0.47236        2.31381
H         -7.87495       -3.01223       -0.95706
H        -10.88618       -1.09381        3.30590
H         -9.79513       -4.46009       -0.23469
H        -12.22940       -6.16454        4.96133
H        -12.25290      -10.91638        3.12921
H         -9.94404      -10.27402        2.14544
H         -9.34416       -5.63819        3.73367
H         -7.27226       -4.87549        2.33732
H         -7.40054       -9.50736        0.44670
H        -10.26328       -8.89165       -0.50468
H         -7.85550      -11.56985        1.12962
H         -6.28382      -14.67442        1.56757
H         -6.30709      -13.01180        2.17010
H         -5.00633      -13.52147        1.08321
H         -6.03377      -14.80780       -1.12778
H         -7.34218      -14.31916       -3.19502
H        -10.41839      -13.51984       -4.38010
H         -8.10255      -11.84170       -5.54024
H        -12.07175      -15.04523       -9.69218
H        -11.75066      -16.15381       -6.83598
H        -13.97536      -16.61193       -8.86418
H        -16.57479      -20.92148       -7.41159
H        -13.35539      -22.95671       -3.33057
H        -17.38955      -22.99138       -6.24132
H        -12.47884      -21.00282       -4.53352
