93

C          6.80910       -5.62244        0.53694
C          5.93205       -6.65624        0.63331
C          6.05672       -8.08181        0.76108
O          7.09633       -8.71724        0.79812
N          4.75576       -8.53425        0.79748
C          4.40169       -9.92960        0.84246
C          3.80598       -7.52578        0.67631
O          2.59534       -7.67643        0.62882
C          4.56340       -6.28853        0.56846
C          4.35477       -4.93223        0.37065
S          5.93814       -4.15448        0.44838
C          3.14070       -4.07492        0.17661
C          1.89217       -4.30251        0.78762
C          0.72234       -3.46886        0.55392
N         -0.44728       -3.87210        1.10122
C         -0.50184       -4.97615        1.90765
C          0.61594       -5.70555        2.17211
N          1.81175       -5.34788        1.63682
C          0.60903       -6.86624        3.02525
N          0.55551       -7.78337        3.72524
C         -1.75062       -5.25299        2.55860
N         -2.74255       -5.43899        3.13680
C          0.76262       -2.24540       -0.18265
C          2.03491       -1.95686       -0.76117
C          3.20212       -2.90995       -0.64986
N          4.23645       -2.51481       -1.41489
S          3.85750       -1.06025       -2.08582
N          2.37806       -0.82532       -1.40092
C         -0.33494       -1.23626       -0.37799
N         -1.25489       -0.82237        0.62079
C         -1.39313       -1.25191        1.98915
C         -2.56818       -2.20068        2.17236
C         -2.11639        0.20039        0.17601
O         -3.01157        0.77939        0.75647
C         -1.63499        0.44815       -1.17209
C         -0.57322       -0.47849       -1.47932
C         -0.17572       -0.15133       -2.88854
O          0.60840       -0.75060       -3.59782
N         -0.96910        0.97988       -3.21324
C         -0.84894        1.70166       -4.47391
C         -0.52679        3.18703       -4.31773
C         -1.84963        1.28203       -2.18511
C         -2.83267        2.32148       -2.25315
C         -2.90366        3.34261       -1.38244
C         -3.92429        4.35666       -1.41652
C         -4.00873        5.39291       -0.54826
C         -5.23515        6.14956       -0.81845
C         -5.85155        5.47567       -1.97280
C         -5.07052        4.43972       -2.31038
C         -7.04176        5.77755       -2.66774
N         -8.01551        6.00713       -3.25461
C         -5.70428        7.20936       -0.12743
C         -6.97775        7.88655       -0.38608
C         -7.15525        8.87153        0.51801
C         -5.98015        8.89016        1.37801
C         -5.11586        7.92019        1.01579
C         -3.87420        7.69666        1.64693
N         -2.85266        7.51095        2.16735
C         -8.31709        9.69635        0.53060
C         -8.50271       10.99763        0.93435
C         -7.70204       12.07150        1.47518
O         -6.51756       12.02533        1.76044
N         -8.57749       13.13955        1.60001
C         -8.20271       14.43447        2.10502
C         -9.86960       12.85272        1.19634
O        -10.84938       13.57700        1.19124
C         -9.81538       11.48135        0.77098
C        -10.69086       10.57117        0.26441
S         -9.87400        9.08605       -0.01251
H          7.89154       -5.64698        0.53977
H          5.28844      -10.56145        0.94179
H          3.87584      -10.18192       -0.08320
H          3.72337      -10.10049        1.68271
H         -1.59892       -0.36747        2.60569
H         -0.44928       -1.66003        2.35724
H         -3.53388       -1.70912        2.03592
H         -2.54030       -2.62186        3.18124
H         -2.56234       -3.00298        1.43277
H         -1.78170        1.57603       -5.03535
H         -0.05045        1.24042       -5.06505
H         -1.37716        3.75191       -3.92524
H         -0.28296        3.62946       -5.28909
H          0.31977        3.34464       -3.64219
H         -3.54026        2.22866       -3.07183
H         -2.17399        3.41368       -0.57455
H         -3.29604        5.57361        0.25002
H         -5.25772        3.75135       -3.12104
H         -7.67990        7.63982       -1.16316
H         -5.83429        9.59930        2.18553
H         -7.14411       14.46312        2.37306
H         -8.81568       14.66085        2.98261
H         -8.41297       15.18597        1.33795
H        -11.74454       10.68420        0.04594
