102

C         -1.28339       -1.76470       -4.55340
S         -1.80662       -2.76989       -3.28639
C         -0.63286       -2.16524       -2.16023
C          0.08576       -1.14476       -2.76445
C         -0.30178       -0.91495       -4.12920
N          0.21041        0.04829       -4.93109
C          1.14226        0.79797       -4.27848
O          1.66061        1.88387       -4.97265
C          1.60028        1.67830       -6.39358
C          2.10529        2.90750       -7.12797
C          1.54559        0.57134       -2.93204
O          2.52784        1.39633       -2.39342
C          2.83522        1.05365       -1.03618
C          3.88985        1.99620       -0.48896
N          1.04203       -0.41711       -2.12111
N         -0.51659       -2.58062       -0.85262
C         -1.05640       -3.67700       -0.23109
S         -1.35085       -5.17307       -1.05642
C         -1.92716       -5.91495        0.33275
N         -2.37154       -7.26181        0.24580
O         -1.74841       -8.08866        0.92187
O         -3.35507       -7.48580       -0.47004
C         -1.84765       -5.13434        1.45298
C         -1.35584       -3.82648        1.12361
C         -1.18109       -2.82355        2.13339
C         -1.40975       -1.50898        1.99444
C         -1.11643       -0.52899        3.01259
C         -1.56681       -0.49698        4.28279
C         -2.43605       -1.54433        4.92645
C         -1.19694        0.65053        5.19224
N         -2.20972        1.68057        5.08346
C         -3.33348        1.78146        5.86902
C         -4.27534        2.73059        5.79819
C         -5.46607        2.74296        6.63355
C         -6.43817        3.66985        6.61673
C         -7.61808        3.64906        7.45453
C         -8.44465        4.68867        7.25666
C         -7.98997        5.61090        6.22961
S         -6.45832        5.05300        5.55884
C         -8.58197        6.75469        5.83573
C         -9.74432        7.38620        6.43346
C         -9.98234        8.62431        5.97314
C         -9.06094        9.04177        4.94069
S         -7.97206        7.75268        4.51342
C         -8.94774       10.24522        4.36121
C         -9.68392       11.41672        4.75620
C        -10.53564       12.15780        4.03657
C        -11.38549       13.11262        4.82007
O        -11.19462       13.54647        5.93664
C        -12.56956       13.35864        3.98856
C        -13.68528       14.08324        4.37601
C        -14.75868       14.16085        3.48528
C        -14.69251       13.47231        2.23780
C        -15.78599       13.55068        1.36161
C        -16.90834       14.29969        1.70440
C        -16.96465       14.97221        2.91633
C        -15.90268       14.90478        3.81097
F        -18.04545       15.69760        3.23636
F        -17.93628       14.36827        0.84774
C        -13.53872       12.73419        1.89036
C        -12.45062       12.70298        2.75388
C        -11.07733       12.10987        2.67111
C        -10.40787       11.85772        1.51932
C         -9.00365       11.63250        1.46691
N         -7.85380       11.49094        1.37526
C        -11.02958       11.93750        0.23375
N        -11.53628       12.00043       -0.79831
H         -1.74553       -1.81307       -5.52750
H          0.57654        1.48666       -6.73878
H          2.24022        0.82614       -6.64890
H          1.41174        3.74612       -7.00469
H          2.19652        2.69599       -8.19886
H          3.07825        3.22616       -6.74455
H          3.22415        0.02869       -0.98235
H          1.93695        1.14475       -0.41269
H          4.79006        1.98181       -1.11047
H          4.16110        1.70927        0.53235
H          3.51675        3.02461       -0.47447
H          0.02064       -1.94432       -0.26292
H         -2.14118       -5.46587        2.44332
H         -0.84682       -3.18789        3.10235
H         -1.77588       -1.09988        1.05444
H         -0.49470        0.29169        2.64989
H         -2.52423       -2.46310        4.34517
H         -3.44937       -1.16319        5.07784
H         -2.01851       -1.83445        5.89627
H         -0.22553        1.07446        4.91006
H         -1.08666        0.31212        6.22917
H         -2.29119        2.11608        4.16680
H         -3.41006        0.97913        6.59889
H         -4.13776        3.54450        5.09094
H         -5.56540        1.90259        7.31784
H         -7.81158        2.85625        8.16438
H         -9.37683        4.80999        7.78991
H        -10.32224        6.93183        7.22571
H        -10.76699        9.26388        6.35269
H         -8.14838       10.39070        3.63957
H         -9.56574       11.64967        5.81927
H        -13.70628       14.56627        5.34969
H        -15.77787       13.04275        0.40029
H        -15.98024       15.44279        4.75212
H        -13.53045       12.20188        0.94389
