93

C         -6.52830        1.26810       -5.96074
C         -7.01206        0.15149       -6.55552
C         -6.77223       -0.16804       -7.92583
N         -6.58062       -0.43233       -9.04023
C         -7.75624       -0.83882       -5.84774
N         -8.36456       -1.63863       -5.26772
C         -5.63251        2.28930       -6.59202
C         -5.06556        3.06457       -5.57898
C         -4.17942        4.11326       -5.79714
C         -3.83276        4.41405       -7.13149
C         -4.40176        3.64997       -8.16146
C         -5.31231        2.58844       -7.91363
S         -3.84462        4.18573       -9.70831
C         -2.88561        5.39105       -9.01820
C         -2.95841        5.42795       -7.65200
Br        -1.82770        6.56430      -10.02479
C         -5.56197        2.65353       -4.26105
O         -5.13584        3.06244       -3.20148
C         -6.64105        1.64067       -4.52588
C         -7.58137        1.31720       -3.61990
C         -7.63611        1.85801       -2.30480
S         -8.52559        3.28880       -2.00540
C         -8.24116        3.23646       -0.29638
C         -7.46324        2.13224        0.01756
C         -7.10384        1.36045       -1.13400
C         -7.04277        1.78312        1.34131
N         -6.72311        1.47277        2.41482
C         -8.80146        4.30158        0.47431
C         -9.22993        4.18191        1.74215
C         -9.77795        5.30003        2.43781
O         -9.71542        5.43770        3.83336
C        -10.43474        6.42171        1.99948
C        -10.92499        7.05957        0.81432
O        -10.87691        6.66174       -0.33584
N        -11.46124        8.24790        1.26332
C        -11.34665        8.44173        2.62122
O        -11.69508        9.40272        3.27620
C        -10.69970        7.25099        3.08615
C        -10.25003        6.66372        4.23493
C        -10.25571        7.18412        5.55550
C        -10.30175        6.40475        6.64566
C        -10.22635        6.98385        7.97787
C         -9.77426        6.38486        9.08977
C         -9.58595        7.07391       10.34689
C         -8.81944        6.39660       11.21567
C         -8.33855        5.13024       10.68928
S         -9.18901        4.74543        9.19229
C         -7.28018        4.43613       11.14661
C         -6.38134        4.86397       12.20392
C         -5.17559        4.28255       12.13081
C         -5.07055        3.32382       11.04956
S         -6.63384        2.99590       10.36233
C         -3.90377        2.84192       10.60198
C         -3.68449        1.94222        9.48094
C         -2.48179        1.53345        9.04963
C         -1.13313        1.80907        9.53599
C         -0.65132        1.58356       10.78237
C          0.74322        1.61415       11.05494
N          1.89315        1.63690       11.25767
C         -1.47677        1.16669       11.86713
N         -2.13696        0.84556       12.76514
C         -0.29438        1.97173        8.33137
C         -0.92478        1.31046        7.27448
C         -2.30355        0.93510        7.67639
O         -3.11671        0.33696        7.00997
C         -0.33654        1.16617        6.02505
C          0.90930        1.81047        5.80677
C          1.46590        2.58428        6.83983
C          0.88158        2.67485        8.12081
S          2.90817        3.38099        6.32681
C          2.83507        2.66142        4.80405
C          1.75193        1.83838        4.64069
Br         4.11094        2.97556        3.46917
H         -3.78106        4.68514       -4.96276
H         -5.72949        2.06022       -8.76341
H         -2.41769        6.13670       -7.03611
H         -8.40784        0.66056       -3.86195
H         -6.48964        0.46765       -1.09679
H         -8.88267        5.25802       -0.03778
H         -9.16539        3.25158        2.29656
H        -11.87050        8.92854        0.64714
H        -10.19052        8.26586        5.65783
H        -10.36887        5.32302        6.55445
H        -10.49823        8.03686        8.04370
H         -9.97733        8.06260       10.53724
H         -8.54283        6.78041       12.18655
H         -6.61840        5.64028       12.91698
H         -4.34526        4.53286       12.77713
H         -3.01594        3.23419       11.08929
H         -4.55875        1.67057        8.88754
H         -0.83421        0.60806        5.23711
H          1.34010        3.29129        8.88780
H          1.54547        1.29038        3.72944
