97

C         -4.67064        2.70013       -0.37947
C         -4.13186        1.54367       -0.84202
C         -2.78636        1.13676       -0.57830
N         -1.69906        0.79669       -0.37698
C         -4.84134        0.60242       -1.64069
N         -5.38864       -0.17896       -2.30192
C         -3.96724        3.70356        0.48998
C         -4.85493        4.73296        0.80289
C         -4.53155        5.84435        1.57840
C         -3.22936        5.91540        2.11627
C         -2.33746        4.86989        1.84280
C         -2.68056        3.76936        1.01611
S         -0.82672        5.11257        2.64496
C         -1.34169        6.57717        3.30493
C         -2.61705        6.91914        2.94215
Br        -0.26969        7.62543        4.42709
C         -6.17602        4.48395        0.22361
O         -7.14535        5.18983        0.41283
C         -6.05912        3.21755       -0.58025
C         -7.09176        2.72130       -1.28338
C         -8.44278        3.26187       -1.39215
C         -9.54896        2.52912       -1.60704
C        -10.89577        3.05083       -1.64870
C        -11.84429        2.09910       -1.64259
C        -11.31514        0.74442       -1.59186
S         -9.56016        0.79287       -1.76051
C        -11.99382       -0.39957       -1.37221
C        -13.41712       -0.54832       -1.13136
C        -13.77136       -1.77589       -0.71581
C        -12.65725       -2.69596       -0.59162
S        -11.20330       -1.97315       -1.23000
C        -12.72627       -3.91616       -0.02997
C        -11.59292       -4.77523        0.11527
S        -11.19031       -5.84606       -1.15491
C         -9.74801       -6.39817       -0.38376
C         -9.62671       -5.83602        0.87859
C        -10.71215       -4.92250        1.17797
C        -10.77521       -4.17337        2.48102
C         -9.86779       -4.78806        3.55545
C         -8.46002       -5.04304        2.99600
N         -7.55016       -5.48865        4.05968
C         -8.51207       -6.08899        1.86421
C         -8.92614       -7.28398       -1.14302
C         -8.10242       -8.20919       -0.62144
C         -7.32493       -9.07247       -1.44627
S         -7.37672       -9.12752       -3.17983
C         -6.21571      -10.38078       -3.31253
C         -5.81156      -10.73781       -2.07180
C         -6.43073      -10.00608       -1.00059
S         -5.82810      -10.57296        0.70905
C         -4.75104      -11.82957       -0.20589
C         -4.87873      -11.74791       -1.63265
C         -4.13261      -12.64332       -2.32449
S         -3.26742      -13.63080       -1.20674
C         -3.89607      -12.81553        0.18040
C         -3.61366      -13.21528        1.50561
C         -2.54293      -12.79576        2.19566
C         -2.15727      -13.34364        3.47602
C         -0.92330      -12.98532        3.85837
C         -0.25214      -12.09986        2.91869
S         -1.37560      -11.61980        1.64738
C          1.04463      -11.73729        2.95194
C          2.02253      -12.15874        3.94018
C          3.26896      -11.73619        3.68877
C          3.37310      -10.96149        2.47999
S          1.82153      -10.71864        1.73378
C          4.51060      -10.49576        1.95928
H         -5.26943        6.61885        1.77095
H         -1.92175        3.01735        0.84382
H         -3.11135        7.82963        3.25875
H         -6.97507        1.80186       -1.84444
H         -8.55866        4.33461       -1.25399
H        -11.10394        4.11268       -1.65099
H        -12.90178        2.32193       -1.64277
H        -14.12214        0.26350       -1.24535
H        -14.78591       -2.05604       -0.46619
H        -13.67132       -4.28566        0.35512
H        -11.80518       -4.15016        2.85469
H        -10.46596       -3.13611        2.30171
H        -10.30266       -5.73262        3.91073
H         -9.82602       -4.11207        4.41786
H         -8.06339       -4.10296        2.59173
H         -7.89913       -6.34920        4.48072
H         -7.52795       -4.79540        4.80632
H         -8.67011       -7.08682        2.29514
H         -7.54385       -6.09982        1.34840
H         -9.01357       -7.18180       -2.22176
H         -8.01909       -8.33632        0.45296
H         -5.92006      -10.76434       -4.27788
H         -4.04785      -12.79771       -3.39135
H         -4.26441      -13.97420        1.92939
H         -2.78187      -14.02964        4.03209
H         -0.45865      -13.35808        4.75989
H          1.77620      -12.77324        4.79350
H          4.12271      -11.96105        4.31200
H          5.46684      -10.67626        2.43705
H          4.51851       -9.93305        1.03072
