92

C        -14.74046       -4.43103      -10.09530
C        -15.26953       -5.59698      -10.64604
F        -16.50907       -5.57612      -11.15561
C        -14.52883       -6.76764      -10.67309
F        -15.04373       -7.88621      -11.20135
C        -13.23976       -6.79833      -10.15326
C        -12.68616       -5.63681       -9.60110
C        -13.44009       -4.42586       -9.56501
C        -12.87884       -3.25306       -9.00014
C        -11.57947       -3.27266       -8.49977
C        -10.88961       -4.48984       -8.54733
C        -11.39962       -5.66007       -9.07620
C         -9.57812       -4.37523       -7.91392
O         -8.74579       -5.25694       -7.90875
C         -9.52063       -2.99761       -7.31646
C        -10.69441       -2.25245       -7.84536
C        -10.88739       -0.90991       -7.84485
C        -12.01401       -0.28896       -8.46150
N        -12.93024        0.20733       -8.96465
C         -9.95030       -0.00281       -7.27035
N         -9.19131        0.74432       -6.80131
C         -8.64262       -2.69897       -6.34130
C         -7.72572       -3.67300       -5.75776
C         -7.74062       -4.02858       -4.46443
C         -7.06911       -5.18282       -3.91491
C         -7.46147       -5.48312       -2.66595
C         -8.43976       -4.55452       -2.12132
S         -8.71495       -3.23904       -3.26163
C         -9.09777       -4.63801       -0.94984
C         -9.00276       -5.69198        0.04312
C         -9.79644       -5.50513        1.10965
C        -10.57011       -4.28670        1.04366
S        -10.26408       -3.41576       -0.42629
C        -11.42325       -3.83223        1.97167
N        -12.14612       -2.64714        1.94553
C        -13.01836       -2.16964        2.87988
S        -13.87533       -3.24328        3.93510
C        -14.66337       -1.97832        4.71821
N        -15.58529       -2.24234        5.78825
O        -16.09416       -1.24999        6.32860
O        -15.80748       -3.41931        6.09927
C        -14.31906       -0.74609        4.21933
C        -13.37841       -0.84382        3.13737
C        -12.88347        0.30955        2.41761
C        -12.79173        1.55548        2.92942
C        -12.42497        2.69461        2.16719
N        -11.57265        2.61913        1.06907
C        -11.47297        3.91950        0.53827
C        -12.24634        4.71893        1.32625
C        -12.81034        3.97895        2.35454
N        -13.58659        4.60928        3.26826
C        -13.53019        5.92176        2.78604
C        -12.74964        6.02825        1.60455
C        -12.54413        7.27333        0.92752
C        -12.31078        7.44231       -0.38438
N        -12.05996        8.63480       -1.04907
C        -11.87958        8.82606       -2.39372
S        -12.59837        7.76523       -3.56397
C        -11.94865        8.61745       -4.86474
N        -12.17151        8.18776       -6.21649
O        -11.59059        8.83323       -7.10012
O        -12.91877        7.22019       -6.41325
C        -11.20788        9.70308       -4.47135
C        -11.18281        9.84913       -3.04365
C        -10.43617       10.89642       -2.39639
C        -10.14337       12.08127       -2.95681
H        -15.35481       -3.53433      -10.09466
H        -12.68502       -7.73109      -10.18465
H        -13.49675       -2.36116       -8.95762
H        -10.79351       -6.56765       -9.06836
H         -8.68081       -1.75087       -5.81255
H         -7.11983       -4.24751       -6.45692
H         -6.37940       -5.78361       -4.49342
H         -7.10301       -6.34993       -2.12870
H         -8.36024       -6.55459       -0.07020
H         -9.85804       -6.19023        1.94451
H        -11.56474       -4.41494        2.87897
H        -11.91671       -2.07601        1.13279
H        -14.73469        0.18021        4.59897
H        -12.62647        0.14331        1.37472
H        -13.06146        1.73144        3.96876
H        -11.09343        1.79875        0.72147
H        -10.85381        4.10478       -0.32712
H        -14.05779        4.22071        4.07440
H        -14.06985        6.68966        3.32552
H        -12.60860        8.16318        1.54806
H        -12.29217        6.56679       -1.03073
H        -11.95022        9.43274       -0.42793
H        -10.69061       10.35113       -5.17025
H        -10.04649       10.70040       -1.39907
H        -10.49708       12.36252       -3.94587
H         -9.53190       12.81579       -2.44218
