103

C          6.50473       -6.74083       -8.02763
C          7.19602       -7.63093       -8.84512
F          8.46799       -7.36580       -9.17259
C          6.57996       -8.78134       -9.31627
F          7.25010       -9.63128      -10.10574
C          5.26510       -9.06926       -8.96908
C          4.55305       -8.19447       -8.13643
C          5.17501       -7.00150       -7.66331
C          4.46121       -6.10599       -6.83455
C          3.14941       -6.38737       -6.46967
C          2.59392       -7.59561       -6.91405
C          3.24674       -8.49205       -7.74683
C          1.27575       -7.81364       -6.31498
O          0.57987       -8.79853       -6.46431
C          1.01930       -6.62992       -5.43491
C          2.13557       -5.67437       -5.62533
C          2.18683       -4.38370       -5.21868
C          3.29565       -3.52175       -5.51709
N          4.18857       -2.82040       -5.75619
C          1.13847       -3.74658       -4.49806
N          0.29118       -3.22552       -3.91787
C         -0.03500       -6.65024       -4.60514
N         -0.97347       -7.65636       -4.44909
C         -1.95862       -7.70221       -3.51179
S         -2.20765       -9.16134       -2.61937
C         -3.38271       -8.43191       -1.65547
N         -3.99748       -9.16147       -0.59752
O         -5.23299       -9.23096       -0.62182
O         -3.25428       -9.61044        0.28308
C         -3.68468       -7.15061       -2.02884
C         -2.88569       -6.72991       -3.14339
C         -3.06963       -5.48746       -3.84708
C         -3.98295       -4.56498       -3.51099
C         -4.29642       -3.39090       -4.28375
C         -5.16330       -2.43456       -3.89233
C         -5.82651       -2.37175       -2.54164
C         -5.56437       -1.33666       -4.83980
N         -4.64822       -0.23194       -4.68141
C         -3.49745       -0.07028       -5.40410
C         -2.60147        0.91360       -5.28451
C         -1.39779        0.97185       -6.08037
C         -1.30185        1.02485       -7.41786
C         -0.03579        1.05650       -8.10430
C         -0.14969        1.20503       -9.42867
C         -1.52112        1.34306       -9.89858
S         -2.63363        1.10429       -8.55488
C         -1.87329        1.71439      -11.14572
C         -0.93243        2.03324      -12.20020
C         -1.46308        2.74406      -13.20346
C         -2.88398        3.00650      -13.04924
S         -3.51398        2.05518      -11.70303
C         -3.66787        3.87713      -13.72379
C         -3.21469        4.88611      -14.72219
C         -2.02669        5.56525      -14.43552
C         -1.39919        6.38824      -15.36210
C         -1.95161        6.45322      -16.64623
C         -3.18506        5.82980      -16.98078
C         -3.89530        5.18889      -15.93139
C         -5.25136        4.88137      -16.15033
C         -5.82584        4.97708      -17.41574
C         -5.04556        5.32188      -18.51745
C         -3.72413        5.79032      -18.31781
C         -2.98785        6.12257      -19.48478
C         -3.50810        5.94389      -20.77189
C         -4.79660        5.45860      -20.93621
C         -5.56862        5.17218      -19.81395
C         -0.17256        7.13306      -15.02993
C          0.44329        7.12336      -13.83793
H          7.02274       -5.85022       -7.68033
H          4.81403       -9.98206       -9.35035
H          4.97693       -5.21843       -6.48207
H          2.74661       -9.40588       -8.05812
H         -0.21469       -5.84259       -3.90378
H         -0.68703       -8.54246       -4.88416
H         -4.45210       -6.56336       -1.54022
H         -2.47140       -5.31945       -4.74109
H         -4.59967       -4.72376       -2.63552
H         -3.83612       -3.31831       -5.26906
H         -5.25569       -2.88723       -1.76379
H         -6.82809       -2.80955       -2.59136
H         -5.91882       -1.33325       -2.20711
H         -6.58649       -1.00335       -4.62788
H         -5.57286       -1.69301       -5.87797
H         -4.70052        0.28027       -3.80710
H         -3.34384       -0.85462       -6.14459
H         -2.73528        1.69485       -4.54281
H         -0.48792        0.98985       -5.48246
H          0.91100        0.98276       -7.58731
H          0.71200        1.26662      -10.07575
H          0.11582        1.77101      -12.15711
H         -0.87000        3.10081      -14.03483
H         -4.73045        3.89682      -13.50220
H         -1.58695        5.42749      -13.45355
H         -1.42888        7.03933      -17.39883
H         -5.89234        4.58721      -15.32249
H         -6.87500        4.71640      -17.53749
H         -1.95921        6.46591      -19.41353
H         -2.89396        6.16156      -21.64221
H         -5.19719        5.29005      -21.93231
H         -6.57353        4.78049      -19.95978
H          0.24536        7.75157      -15.82072
H          0.09277        6.55262      -12.98484
H          1.33993        7.71059      -13.67264
