120

C          3.59376       -6.07633       -2.33039
C          3.64820       -5.44869       -3.56701
C          2.65633       -5.74206       -4.55584
C          2.66020       -5.00923       -5.79266
N          2.62678       -4.41354       -6.78456
C          1.62536       -6.68337       -4.31600
C          0.65863       -7.04044       -5.31374
N         -0.13554       -7.37367       -6.09350
C          1.49350       -7.22734       -3.04745
C          2.45195       -6.85871       -2.12060
C          2.22587       -6.70898       -0.70876
O          1.50105       -5.77209       -0.37570
C          3.50315       -6.92918       -0.05966
C          4.31969       -6.04192       -0.97023
C          5.26866       -5.15600       -0.59423
C          5.71955       -4.12380       -1.47081
N          6.01755       -3.27029       -2.19703
C          5.76116       -5.12585        0.73917
N          6.15413       -5.12657        1.83084
C          3.64501       -7.75921        0.99624
C          2.72761       -8.77836        1.63755
C          3.17694       -9.97418        2.14260
N          4.45961      -10.58491        1.89870
O          4.44016      -11.79222        1.61483
O          5.48039       -9.90745        2.05551
C          2.27436      -10.61097        3.07141
C          1.20362       -9.83031        3.21160
C          1.28789       -8.76423        2.20084
C          0.14954       -8.10548        1.88246
C         -0.08431       -7.22539        0.79434
C         -0.98042       -6.29929        1.15904
C         -1.66076       -6.84246        2.32155
N         -3.02786       -6.45571        2.61764
O         -3.55697       -5.64020        1.84727
O         -3.57538       -6.93118        3.61822
C         -1.14452       -8.06872        2.60364
C         -1.93355       -9.24099        2.89675
C         -2.86243       -9.70361        2.04187
C         -3.63534      -10.88079        2.27456
N         -4.10172      -11.79424        1.31821
C         -3.95084      -11.83093       -0.12484
C         -3.14208      -10.74289       -0.80549
C         -4.80218      -12.85991        1.94691
O         -5.31019      -13.84809        1.46253
C         -4.74215      -12.49692        3.37273
C         -4.03457      -11.26509        3.48931
C         -3.95925      -10.90071        4.91571
O         -3.39401       -9.95582        5.42439
N         -4.64024      -11.95415        5.53438
C         -4.73221      -12.04287        6.97603
C         -3.54922      -12.77580        7.59003
C         -5.06867      -12.89033        4.60198
C         -5.73858      -14.08716        4.95392
C         -5.25462      -15.29655        4.63960
C         -5.95420      -16.50554        4.94712
C         -6.77795      -16.64438        6.00377
C         -7.25913      -18.01324        6.03353
C         -6.66123      -18.67513        4.86600
C         -5.86997      -17.77784        4.25550
C         -6.86868      -19.98422        4.38094
N         -7.03259      -21.05939        3.97528
C         -8.03304      -18.51555        7.01133
C         -8.39376      -19.91706        7.13111
C         -9.02311      -20.09039        8.30559
C         -9.19762      -18.78810        8.93306
C         -8.61404      -17.83076        8.18112
C         -8.65898      -16.46021        8.49234
N         -8.69052      -15.33554        8.76260
C         -9.52393      -21.36943        8.70720
C         -9.76178      -21.71503        9.97288
C        -10.36522      -22.96495       10.34218
C        -11.67729      -23.24724       10.30659
C        -12.11121      -24.34176       11.23055
O        -11.47172      -25.28616       11.64005
C        -13.46469      -23.96037       11.66078
C        -14.20664      -24.59315       12.64225
C        -15.44333      -24.03537       12.98145
C        -15.88793      -22.84870       12.35657
C        -15.09837      -22.22397       11.37066
C        -13.89245      -22.79988       10.99442
C        -12.87942      -22.47428        9.94695
C        -13.18030      -21.85439        8.77875
C        -12.38551      -21.96116        7.60659
N        -11.82437      -22.05888        6.59450
C        -14.41182      -21.17324        8.56164
N        -15.41466      -20.61630        8.40546
C        -17.14785      -22.24757       12.69146
N        -18.17021      -21.75363       12.94388
C        -16.23136      -24.68834       13.98597
N        -16.85439      -25.22709       14.79899
H          4.37302       -4.66877       -3.78685
H          0.64838       -7.85019       -2.76614
H          4.63382       -7.75771        1.46553
H          2.48444      -11.50896        3.63542
H          0.40770      -10.01912        3.91106
H          0.17492       -7.42964       -0.22361
H         -1.38878       -5.54350        0.50410
H         -1.69816       -9.74973        3.82357
H         -3.08610       -9.14005        1.14437
H         -4.96287      -11.83923       -0.55370
H         -3.51353      -12.80550       -0.38081
H         -3.66224       -9.78198       -0.74531
H         -3.00982      -10.96417       -1.86845
H         -2.14455      -10.65183       -0.36514
H         -5.67728      -12.51534        7.25904
H         -4.74785      -11.02099        7.37388
H         -3.52636      -13.82390        7.27625
H         -3.61491      -12.74732        8.68223
H         -2.59846      -12.31803        7.29542
H         -6.68545      -13.95879        5.47198
H         -4.31130      -15.40381        4.10753
H         -6.99261      -15.86634        6.71479
H         -5.28887      -17.93392        3.35778
H         -8.17529      -20.71416        6.43972
H         -9.75409      -18.62333        9.84420
H         -9.70739      -22.08237        7.90602
H         -9.45026      -21.07104       10.79335
H         -9.68360      -23.64787       10.85504
H        -13.82124      -25.48766       13.12828
H        -15.46118      -21.29837       10.92926
