109

C         -3.28702        7.13830       -0.31569
C         -3.45144        7.32642        1.01368
C         -4.74618        7.36325        1.60986
N         -5.80860        7.39350        2.07642
C         -2.35713        7.71366        1.84394
N         -1.48600        8.08322        2.51061
C         -4.37468        7.22662       -1.31098
C         -3.91448        8.08007       -2.32848
C         -4.66962        8.39754       -3.43694
C         -5.87543        7.71057       -3.61172
C         -6.31070        6.75171       -2.64459
C         -5.57831        6.55851       -1.45495
C         -7.43848        5.96850       -2.93521
C         -8.12254        6.12237       -4.14397
C         -7.72542        7.09704       -5.05512
C         -6.61707        7.89714       -4.78358
C         -2.45798        8.32334       -2.16220
O         -1.74259        9.03370       -2.83241
C         -2.05819        7.36009       -1.07676
C         -0.95689        6.61407       -1.29692
C         -0.62250        5.30641       -0.79918
C         -1.38076        4.52984        0.05954
O         -0.76815        3.34519        0.32921
C          0.38686        3.35385       -0.37964
N          1.23240        2.22899       -0.17991
O          2.41168        2.46753        0.10768
O          0.72780        1.11247       -0.34814
C          0.50884        4.48579       -1.15225
C          1.58097        4.72939       -2.04926
N          1.62698        4.29339       -3.38117
C          0.64165        3.50357       -4.09366
C         -0.39919        4.35441       -4.80239
C          2.82152        4.70463       -4.02131
O          3.19626        4.52868       -5.16226
C          3.53822        5.41290       -2.95048
C          2.72104        5.36726       -1.77300
C          3.42832        6.07227       -0.69875
O          3.02650        6.25626        0.43101
N          4.60686        6.51356       -1.34023
C          5.52679        7.40713       -0.66614
C          6.55643        6.67522        0.18216
C          4.64722        6.10517       -2.68161
C          5.63968        6.48279       -3.65371
C          6.95507        6.59754       -3.43145
C          7.89854        7.05143       -4.41304
C          8.98190        6.33509       -4.77073
C          9.76480        7.11754       -5.72946
C          9.04443        8.39400       -5.87240
C          7.94432        8.33028       -5.10227
C          9.40894        9.54187       -6.61175
N          9.70322       10.49584       -7.20445
C         10.89882        6.70179       -6.33273
C         11.67677        7.46188       -7.31352
C         12.70673        6.69818       -7.72978
C         12.65981        5.43346       -7.00948
C         11.60008        5.41862       -6.18151
C         11.30220        4.32626       -5.33643
N         11.07627        3.42993       -4.62781
C         13.67745        7.12981       -8.70443
C         13.93964        6.53703       -9.87895
C         14.99199        6.84281      -10.87863
C         15.57673        8.03532      -11.13154
C         16.50776        8.24064      -12.19259
N         17.26901        8.41038      -13.05048
C         15.25968        9.21446      -10.39550
N         15.00673       10.16990       -9.78989
C         15.16117        5.60073      -11.69261
C         14.09611        4.73703      -11.41490
C         13.25183        5.28565      -10.34694
O         12.22111        4.78507       -9.94805
C         13.92566        3.50634      -12.02797
C         14.88753        3.09439      -12.95612
C         16.00691        3.92971      -13.22945
C         16.13751        5.17741      -12.58639
C         16.97661        3.49186      -14.14344
C         16.84731        2.25909      -14.78368
C         15.74802        1.44714      -14.51934
C         14.77402        1.86072      -13.60981
H         -4.27476        9.06976       -4.19248
H         -5.91182        5.83350       -0.71654
H         -7.77336        5.19737       -2.24384
H         -8.96403        5.47478       -4.37920
H         -8.26451        7.22123       -5.99111
H         -6.31463        8.64166       -5.51746
H         -0.27403        6.99633       -2.06002
H         -2.33284        4.64838        0.55446
H          0.16649        2.79301       -3.41058
H          1.16938        2.91059       -4.85192
H         -1.04629        4.86467       -4.08350
H         -1.03014        3.72506       -5.43935
H          0.06907        5.11496       -5.43595
H          4.94244        8.06247       -0.00972
H          6.01330        8.06128       -1.39502
H          6.09054        6.22962        1.06640
H          7.32573        7.37656        0.52205
H          7.04948        5.86807       -0.36704
H          5.26137        6.65120       -4.66316
H          7.38908        6.33754       -2.47236
H          9.19725        5.35181       -4.38913
H          7.21411        9.11431       -4.95879
H         11.47399        8.45415       -7.68161
H         13.37286        4.63728       -7.14420
H         14.23763        7.99751       -8.36721
H         13.07388        2.88320      -11.76936
H         17.02000        5.77313      -12.79721
H         17.84455        4.10932      -14.36849
H         17.60615        1.93374      -15.49114
H         15.64891        0.48745      -15.02041
H         13.92565        1.20777      -13.41573
