116

C         -2.11261        1.21037       -4.88773
C         -0.92700        1.02478       -5.59512
F         -0.17299        2.08895       -5.90201
C         -0.51823       -0.24799       -5.96598
F          0.63890       -0.42341       -6.61808
C         -1.29555       -1.35687       -5.65326
C         -2.49065       -1.19761       -4.93912
C         -2.90570        0.10681       -4.53224
C         -4.07313        0.26735       -3.75067
C         -4.80340       -0.85169       -3.36216
C         -4.36458       -2.11562       -3.78562
C         -3.24988       -2.31449       -4.58203
C         -5.13116       -3.18247       -3.12405
O         -5.06024       -4.37230       -3.35365
C         -5.95290       -2.48420       -2.08195
C         -5.96519       -1.04593       -2.44411
C         -6.90636       -0.12791       -2.12675
C         -6.85856        1.21556       -2.59748
N         -6.80116        2.31404       -2.97728
C         -8.04781       -0.45889       -1.34268
N         -8.96879       -0.73998       -0.69516
C         -6.30647       -3.08317       -0.92974
C         -5.98197       -4.47885       -0.56811
C         -6.86204       -5.55798       -0.72490
C         -6.51288       -6.90287       -0.32306
N         -7.43200       -7.88797       -0.42780
C         -8.65162       -7.58613       -0.95295
C         -8.94862       -6.32259       -1.40727
N         -8.06638       -5.29981       -1.27664
C        -10.17301       -6.00838       -2.08080
N        -11.15810       -5.78234       -2.65321
C         -9.60974       -8.64951       -0.95706
N        -10.41067       -9.49043       -0.94277
C         -5.22887       -7.23717        0.15610
C         -4.31435       -6.16761        0.35052
C         -4.70503       -4.75552       -0.00622
N         -3.73524       -3.86084        0.25511
S         -2.45796       -4.70880        0.88642
N         -3.06266       -6.25079        0.83293
C         -4.78033       -8.61505        0.39318
N         -4.19961       -9.42514       -0.60154
C         -3.83152       -9.05106       -1.95144
C         -5.01295       -8.87223       -2.88708
C         -3.88042      -10.70777       -0.11143
O         -3.36106      -11.65631       -0.66198
C         -4.31398      -10.63168        1.28327
C         -4.85181       -9.32113        1.53328
C         -5.24811       -9.29681        2.95818
O         -5.73703       -8.35831        3.55456
N         -4.89659      -10.59637        3.41899
C         -5.08038      -11.00767        4.79929
C         -4.15594      -10.28582        5.77070
C         -4.35054      -11.36733        2.39290
C         -3.83371      -12.70676        2.49708
C         -4.55559      -13.83553        2.62997
C         -3.95438      -15.14604        2.63945
S         -2.32369      -15.36770        3.20467
C         -2.31049      -17.07292        2.96436
C         -3.58048      -17.48640        2.60234
C         -4.47923      -16.38933        2.30696
C         -5.76826      -16.58672        1.77478
C         -6.10469      -17.96062        1.55212
C         -7.43811      -18.29625        0.90715
F         -8.20758      -17.20356        0.65536
F         -7.28307      -18.92900       -0.28603
F         -8.19501      -19.11497        1.68426
C         -5.22254      -19.03874        1.91161
C         -5.59074      -20.41487        1.66683
N         -5.81928      -21.53482        1.46570
C         -3.94638      -18.83622        2.48044
C         -1.08550      -17.76932        3.22221
C         -0.61296      -18.78490        2.48214
C          0.36175      -19.73150        3.12329
O          1.15785      -19.50010        4.00666
C          0.03764      -21.05281        2.53723
C          0.49553      -22.28656        2.96392
C         -0.08893      -23.43244        2.40484
C         -1.16603      -23.30152        1.47274
C         -1.79610      -24.45345        0.98199
C         -1.33856      -25.71150        1.35761
C         -0.26312      -25.84016        2.22515
C          0.35525      -24.71378        2.76055
F          0.19105      -27.05586        2.55819
F         -1.94115      -26.80153        0.86391
C         -1.58528      -22.02983        1.04582
C         -0.94070      -20.90823        1.54023
C         -1.10750      -19.45972        1.28086
C         -1.39593      -18.89628        0.08420
C         -1.20509      -17.50282       -0.14772
N         -1.00792      -16.37937       -0.35387
C         -1.79207      -19.66920       -1.04298
N         -2.13610      -20.32098       -1.94129
H         -2.39105        2.22306       -4.60627
H         -0.94094       -2.34025       -5.95104
H         -4.33845        1.26649       -3.41497
H         -2.95214       -3.32368       -4.85359
H         -6.77220       -2.52838       -0.11980
H         -3.19785       -9.84499       -2.36634
H         -3.21400       -8.14825       -1.91267
H         -5.68870       -9.73229       -2.84697
H         -4.66021       -8.75648       -3.91661
H         -5.58611       -7.97693       -2.64307
H         -4.93425      -12.08764        4.89851
H         -6.11930      -10.79058        5.07111
H         -3.10548      -10.50868        5.55830
H         -4.36983      -10.60026        6.79815
H         -4.28599       -9.20022        5.72114
H         -2.75744      -12.75880        2.33319
H         -5.63767      -13.77324        2.71286
H         -6.44876      -15.78121        1.51639
H         -3.32479      -19.66926        2.78463
H         -0.55418      -17.49624        4.13559
H          1.26547      -22.34776        3.72872
H         -2.64056      -24.39093        0.29941
H          1.18697      -24.85485        3.44556
H         -2.41562      -21.94588        0.34815
