119

C         -5.86888        2.06341        8.02695
C         -6.29649        2.12208        9.35120
F         -6.74261        3.28567        9.84248
C         -6.26459        0.99237       10.15652
F         -6.68098        1.05692       11.42826
C         -5.80180       -0.21721        9.65462
C         -5.36210       -0.29794        8.32644
C         -5.39606        0.85771        7.48992
C         -4.96261        0.78153        6.14544
C         -4.48118       -0.41854        5.63951
C         -4.47139       -1.52715        6.49353
C         -4.89527       -1.50510        7.81248
C         -3.99572       -2.71635        5.79211
O         -3.72054       -3.76176        6.34103
C         -3.90286       -2.33259        4.34255
C         -3.95918       -0.84951        4.30431
C         -3.48700       -0.03465        3.32793
C         -2.87706       -0.53159        2.13777
N         -2.38941       -0.93840        1.16644
C         -3.50501        1.38355        3.43329
N         -3.52704        2.54086        3.52191
C         -3.91839       -3.21748        3.33121
C         -4.01141       -4.65615        3.42765
C         -3.45114       -5.49722        2.53007
C         -3.77192       -6.87680        2.91650
C         -4.61656       -6.76620        4.11221
C         -4.78038       -5.46075        4.36367
C         -5.22070       -7.76749        4.90346
N         -5.75960       -8.56160        5.56025
C         -3.36248       -7.99290        2.28063
C         -3.68589       -9.35200        2.68982
C         -3.08445      -10.22451        1.85508
C         -2.36953       -9.44962        0.85366
C         -2.52465       -8.13191        1.09266
C         -1.94617       -7.13124        0.28669
N         -1.47038       -6.32069       -0.39116
C         -3.18099      -11.64897        2.00483
N         -3.23933      -12.56499        0.95500
C         -3.19999      -12.31119       -0.45922
C         -3.27478      -13.88843        1.42044
O         -3.29829      -14.91567        0.77162
C         -3.24763      -13.73039        2.88631
C         -3.20345      -12.32056        3.16357
C         -3.14963      -12.14515        4.62645
O         -3.08288      -11.10168        5.24174
N         -3.16772      -13.47010        5.09537
C         -3.11763      -13.78002        6.50558
C         -3.20671      -14.39407        4.04485
C         -3.15790      -15.81280        4.26957
C         -3.06586      -16.75024        3.31377
C         -2.96120      -18.14081        3.58991
S         -2.17846      -18.70464        5.00109
C         -2.44292      -20.34787        4.61987
C         -2.98373      -20.48460        3.34956
C         -3.39960      -19.19948        2.80468
C         -4.19760      -19.07417        1.50370
N         -5.55098      -18.38975        1.70510
O         -6.00974      -17.76937        0.73654
O         -6.13657      -18.56446        2.78373
C         -4.51477      -20.43421        0.84507
C         -3.41272      -21.46173        1.07628
C         -3.25729      -21.75843        2.58150
N         -2.13969      -22.76932        2.66405
O         -0.99948      -22.38506        2.37283
O         -2.44894      -23.93680        2.94266
C         -2.18606      -21.28080        5.65658
C         -1.01346      -21.86967        5.92724
C          0.24678      -21.78969        5.22299
C          0.91371      -22.81143        4.65537
C          2.05533      -22.49847        3.71953
O          2.75047      -21.50420        3.69448
C          2.11637      -23.63550        2.77511
C          2.90906      -23.74317        1.64153
C          2.67690      -24.81775        0.76665
C          1.60827      -25.72580        1.03399
C          1.31835      -26.74254        0.11177
C          2.09241      -26.88893       -1.03356
C          3.16256      -26.03891       -1.27194
C          3.45675      -25.00456       -0.38654
F          3.91886      -26.20161       -2.36617
F          1.79539      -27.86283       -1.90499
C          0.85332      -25.60162        2.21425
C          1.15072      -24.58970        3.11718
C          0.59313      -24.23210        4.45105
C          0.14215      -25.13933        5.34891
C         -0.09705      -24.82364        6.71443
N         -0.28397      -24.60280        7.83683
C          0.00028      -26.52231        5.03694
N         -0.10900      -27.64880        4.78420
H         -5.90853        2.97077        7.42986
H         -5.78990       -1.08441       10.31000
H         -5.03037        1.67432        5.53136
H         -4.86745       -2.41535        8.40721
H         -3.89972       -2.87695        2.29885
H         -2.85660       -5.18014        1.68906
H         -5.37686       -5.06088        5.17053
H         -4.28662       -9.63831        3.53630
H         -1.79049       -9.87974        0.05066
H         -3.59841      -11.32783       -0.70993
H         -3.79584      -13.06759       -0.98087
H         -2.16318      -12.40911       -0.79556
H         -3.08542      -12.86459        7.10357
H         -2.21925      -14.36734        6.71786
H         -4.01027      -14.34816        6.78455
H         -3.17303      -16.11881        5.31121
H         -3.06362      -16.48376        2.26747
H         -3.64020      -18.44316        0.79940
H         -4.65978      -20.29340       -0.23393
H         -5.45609      -20.85356        1.22506
H         -2.47411      -21.07329        0.65403
H         -3.64039      -22.38506        0.52993
H         -4.16058      -22.23668        2.97983
H         -3.00350      -21.43499        6.36155
H         -0.98707      -22.42468        6.85943
H          0.63294      -20.77734        5.09024
H          3.66559      -22.99075        1.43561
H          0.49283      -27.43189        0.27106
H          4.29712      -24.35339       -0.61199
H          0.02989      -26.28816        2.39212
