133

C        -12.93528       -0.43593        5.90899
C        -13.33972       -0.76541        7.20149
F        -14.24291        0.00689        7.82008
C        -12.82277       -1.88137        7.84463
F        -13.23374       -2.20270        9.07877
C        -11.87067       -2.67439        7.21875
C        -11.43465       -2.34891        5.92744
C        -11.99038       -1.22646        5.23959
C        -11.59367       -0.92861        3.91139
C        -10.63307       -1.71236        3.28744
C        -10.07022       -2.75507        4.02967
C        -10.44835       -3.11191        5.31212
C         -9.00383       -3.37870        3.26073
O         -8.00638       -3.84518        3.76999
C         -9.28319       -3.03545        1.82136
C        -10.01007       -1.74075        1.92285
C         -9.96046       -0.72371        1.03260
C         -9.22003       -0.81627       -0.18975
N         -8.62679       -0.89756       -1.17328
C        -10.58236        0.53046        1.28129
N        -11.09053        1.55322        1.48872
C         -9.13312       -3.83169        0.73533
C         -8.71677       -5.20795        0.73375
C         -8.47085       -6.07956       -0.31085
C         -8.15601       -7.46384        0.09085
C         -7.88936       -8.63145       -0.66441
C         -7.94144       -8.58615       -2.15207
C         -7.07039       -9.12743       -3.08894
C         -7.44992       -8.87368       -4.44000
C         -8.56566       -8.07328       -4.51667
S         -9.27540       -7.86058       -2.97822
C         -9.18076       -7.46355       -5.72982
C         -7.57124       -9.84634       -0.01012
C         -7.53039       -9.95175        1.39378
C         -7.79211       -8.78898        2.18737
C         -8.12304       -7.58363        1.48754
S         -8.60733       -6.09977        2.14056
C         -7.68859       -8.85009        3.73204
C         -7.33083       -9.87669        4.61019
C         -7.26614       -9.53031        6.00110
C         -7.53275       -8.20642        6.20621
S         -8.01879       -7.48241        4.76633
C         -7.43165       -7.40645        7.45813
C         -7.24442      -11.31820        1.74638
C         -6.95341      -12.17378        0.71027
S         -7.20588      -11.37679       -0.75366
C         -6.53946      -13.55558        0.81053
C         -6.19896      -14.44877       -0.17947
F         -6.18820      -14.16227       -1.45406
C         -5.85978      -15.72742        0.30561
F         -5.52916      -16.70962       -0.49023
C         -5.90808      -15.83459        1.67816
S         -6.38890      -14.32303        2.34415
C         -5.61331      -16.98645        2.50632
C         -5.18953      -18.23328        2.10262
C         -4.98730      -19.19683        3.17237
C         -4.54811      -20.55317        3.15870
C         -4.09665      -21.14822        1.86050
C         -4.59589      -21.00285        0.57084
C         -3.79559      -21.63091       -0.43680
C         -2.72706      -22.31079        0.09919
S         -2.64933      -22.09678        1.78582
C         -1.68954      -23.11995       -0.60585
C         -4.47458      -21.28523        4.37402
C         -4.71437      -20.66635        5.61219
C         -5.13846      -19.30983        5.62835
C         -5.27338      -18.60301        4.41073
S         -5.72005      -16.94824        4.19716
C         -5.47687      -18.62371        6.92046
C         -6.52075      -17.75252        7.22193
C         -6.50962      -17.26886        8.56694
C         -5.49538      -17.83080        9.30450
S         -4.46898      -18.76820        8.31768
C         -5.20079      -17.67433       10.75838
C         -4.41651      -21.58414        6.68257
C         -4.12205      -22.87403        6.30595
S         -4.13725      -22.98140        4.61432
C         -3.80130      -24.00351        7.11494
C         -4.31542      -24.20790        8.33739
C         -3.57302      -25.11749        9.27399
O         -2.81418      -26.01654        8.99742
C         -3.87823      -24.60028       10.62544
C         -3.25374      -24.96875       11.80494
C         -3.55095      -24.23825       12.96307
C         -4.45746      -23.13520       12.89741
C         -4.70220      -22.38035       14.05481
C         -4.08028      -22.71554       15.25353
C         -3.21600      -23.79877       15.32016
C         -2.94612      -24.55916       14.18662
F         -2.62279      -24.11749       16.47828
F         -4.32111      -21.97644       16.34512
C         -5.08865      -22.80790       11.68133
C         -4.82206      -23.56479       10.54930
C         -5.31090      -23.49877        9.14861
C         -6.54940      -23.11047        8.75996
C         -7.04987      -23.34122        7.44382
N         -7.48927      -23.53420        6.38693
C         -7.48106      -22.53202        9.66697
N         -8.22186      -22.05989       10.42261
H        -13.36559        0.44555        5.44131
H        -11.47926       -3.53888        7.74923
H        -12.06015       -0.08856        3.40506
H         -9.97834       -3.96270        5.79872
H         -9.45307       -3.47242       -0.23968
H         -8.54089       -5.75408       -1.34128
H         -6.18271       -9.69145       -2.83127
H         -6.89741       -9.22038       -5.30554
H         -8.42632       -7.32141       -6.51241
H         -9.60729       -6.47818       -5.51196
H         -9.96968       -8.10715       -6.12885
H         -7.06429      -10.87726        4.34060
H         -6.97753      -10.21556        6.78824
H         -7.59289       -8.03515        8.33908
H         -8.16269       -6.59121        7.48951
H         -6.43069       -6.96653        7.53451
H         -7.23165      -11.69737        2.74672
H         -5.02419      -18.45246        1.05786
H         -5.48403      -20.43514        0.32537
H         -4.00094      -21.58398       -1.50049
H         -2.10569      -24.07615       -0.94169
H         -0.82866      -23.33585        0.03619
H         -1.31873      -22.58132       -1.48396
H         -7.27480      -17.44135        6.50927
H         -7.22978      -16.56555        8.97079
H         -5.87162      -16.94386       11.22339
H         -4.17275      -17.33331       10.91472
H         -5.33419      -18.62725       11.28369
H         -4.42231      -21.31000        7.72468
H         -3.00616      -24.65922        6.75687
H         -2.53034      -25.78020       11.80585
H         -5.37275      -21.52472       14.04212
H         -2.25700      -25.39497       14.27410
H         -5.75652      -21.95103       11.64413
