104

C          3.97947        1.83953        3.78323
C          3.44872        0.67170        4.21399
C          3.98746       -0.03801        5.32330
N          4.43866       -0.61327        6.22441
C          2.36878        0.03477        3.52690
N          1.48630       -0.46335        2.96716
C          5.17086        2.55087        4.32834
C          5.69886        3.35146        3.30325
C          6.75109        4.23083        3.47968
C          7.27982        4.36473        4.76550
C          6.76981        3.56923        5.83374
C          5.71849        2.65106        5.60083
C          7.30612        3.75103        7.11893
C          8.29945        4.70590        7.35412
C          8.78031        5.48886        6.30877
C          8.27913        5.31380        5.02002
C          4.87064        3.24666        2.09220
O          5.18358        3.59324        0.97424
C          3.61601        2.56997        2.55434
C          2.38760        2.86876        2.10366
C          2.14368        3.85678        1.11086
C          1.98721        3.70941       -0.26388
C          1.65017        4.94045       -0.83974
C          1.53565        5.98426        0.05083
S          1.89714        5.50900        1.61785
C          1.08415        7.22735       -0.49740
C          0.81827        7.22998       -1.85113
Si         1.22441        5.54779       -2.54723
C          2.70323        5.59124       -3.67374
C         -0.15574        4.66856       -3.39686
C          0.30186        8.43785       -2.33476
C          0.19755        9.36206       -1.29877
S          0.75175        8.70963        0.21401
C         -0.31138       10.70881       -1.36028
N          0.12515       11.66192       -0.56044
C         -0.58394       12.79085       -0.81409
C         -1.54146       12.73545       -1.78339
S         -1.56295       11.15230       -2.48187
N         -2.27607       13.85885       -2.01031
C         -1.83218       14.80706       -1.20366
S         -0.54849       14.36581       -0.11723
C         -2.40835       16.12864       -1.19637
C         -3.71440       16.46839       -1.54324
C         -3.89976       17.84413       -1.37347
C         -2.78799       18.52873       -0.93265
S         -1.46968       17.52067       -0.73902
C         -2.97594       19.91879       -0.66119
C         -4.25540       20.38077       -0.84393
Si        -5.32187       19.02870       -1.53543
C         -5.76462       19.33501       -3.32028
C         -6.84947       18.65708       -0.58680
C         -4.46321       21.68221       -0.39622
C         -3.26006       22.29383       -0.05840
S         -1.95097       21.11974       -0.09716
C         -2.94638       23.62361        0.36038
C         -3.58077       24.75406       -0.00263
C         -3.24140       26.16274        0.37163
C         -2.59224       26.58925        1.48643
C         -2.39478       27.96830        1.78879
N         -2.22768       29.08733        2.03792
C         -2.10316       25.70344        2.49111
N         -1.70257       24.99003        3.31326
C         -3.91862       27.04965       -0.62844
C         -4.77903       26.26275       -1.39514
C         -4.67232       24.85516       -1.03673
O         -5.37108       24.01158       -1.55518
C         -5.60072       26.74436       -2.40218
C         -5.56135       28.10472       -2.68285
C         -4.68365       28.94722       -1.94776
C         -3.86003       28.40596       -0.92840
C         -4.66014       30.31452       -2.25996
C         -5.47942       30.83580       -3.26588
C         -6.33480       29.99929       -3.97916
C         -6.37504       28.63886       -3.69017
H          7.09208        4.84304        2.64949
H          5.31475        2.08918        6.43848
H          6.94343        3.16143        7.95883
H          8.69232        4.84575        8.35846
H          9.54174        6.24221        6.49575
H          8.66087        5.94359        4.21844
H          1.49984        2.47596        2.59027
H          2.09082        2.76242       -0.77896
H          3.52957        6.14128       -3.21254
H          2.46386        6.07932       -4.62334
H          3.05552        4.57887       -3.89291
H         -1.04693        4.61311       -2.76381
H          0.12935        3.64377       -3.65521
H         -0.44154        5.17440       -4.32475
H          0.01636        8.64797       -3.35819
H         -4.46102       15.74938       -1.86255
H         -4.88538       19.63689       -3.89868
H         -6.51140       20.13011       -3.40738
H         -6.17572       18.43195       -3.78121
H         -6.62926       18.47468        0.46944
H         -7.35717       17.77108       -0.97895
H         -7.55616       19.49188       -0.63544
H         -5.42907       22.16570       -0.36237
H         -2.06817       23.68190        0.99532
H         -6.24247       26.06096       -2.95243
H         -3.18751       29.08092       -0.40932
H         -4.00408       30.99333       -1.71854
H         -5.45051       31.89797       -3.49292
H         -6.97075       30.40540       -4.76152
H         -7.04681       27.99744       -4.25791
