110

C         -3.02962        0.36145        3.76330
C         -2.57064       -0.84602        4.17032
C         -2.26849       -1.11342        5.54673
N         -2.02220       -1.31580        6.65386
C         -2.26093       -1.88005        3.24248
N         -2.03020       -2.73224        2.49240
C         -3.33129        1.54460        4.61665
C         -3.27721        2.67243        3.79184
C         -3.84879        3.89124        4.11507
C         -4.53552        3.96615        5.34761
C         -4.46086        2.88273        6.24032
C         -3.82407        1.65928        5.91192
S         -5.30142        3.23783        7.70921
C         -5.92743        4.67121        7.07469
C         -5.43256        4.97771        5.83599
Br        -7.19203        5.72429        7.96869
C         -2.84269        2.28619        2.43915
O         -2.30369        2.96916        1.59788
C         -3.18267        0.84565        2.37603
C         -3.92334        0.40127        1.33561
N         -4.28344        1.08327        0.15870
C         -5.13655        0.69269       -0.85481
S         -5.99324       -0.83041       -0.78348
C         -6.66742       -0.62379       -2.30549
N         -7.52417       -1.62302       -2.86014
O         -7.27702       -1.97444       -4.02184
O         -8.47063       -2.00928       -2.16464
C         -6.30954        0.54833       -2.90539
C         -5.47705        1.35907       -2.05007
C         -5.10155        2.70467       -2.44638
C         -5.04528        3.11156       -3.73141
C         -4.73465        4.45863       -4.23330
C         -3.40096        4.77051       -4.50105
C         -3.10631        5.93890       -5.19846
C         -4.10962        6.87674       -5.52006
C         -5.43435        6.58975       -5.23370
C         -5.74655        5.36227       -4.61575
C         -3.50248        8.00135       -6.21526
C         -2.13341        7.73093       -6.42152
C         -1.75025        6.38898       -5.75963
C         -0.70540        6.57895       -4.63325
C         -1.14608        7.46521       -3.46554
C         -1.26001        5.42457       -6.88283
C         -0.82214        4.02395       -6.46330
C         -1.33945        8.57865       -7.19837
C         -1.90143        9.74510       -7.74357
C         -3.24933       10.04725       -7.45794
C         -4.05223        9.18040       -6.69390
C         -1.12699       10.51483       -8.74003
C         -1.20695       11.83807       -8.97270
C         -0.56461       12.49165      -10.11267
C         -0.86372       12.25377      -11.40337
C         -0.27775       12.87888      -12.56837
C         -0.85521       12.52186      -13.73202
C         -1.97877       11.61198      -13.56941
S         -2.10926       11.13829      -11.87791
C         -2.84761       11.14959      -14.49076
C         -2.86677       11.37852      -15.92270
C         -3.83653       10.70447      -16.56772
C         -4.65326        9.87700      -15.70182
S         -4.21356       10.12050      -14.03888
C         -5.58629        8.99754      -16.10293
C         -6.24196        8.12417      -15.17887
O         -5.67317        6.91227      -14.83815
C         -6.40493        6.35316      -13.84823
C         -7.47145        7.15704      -13.54151
N         -8.42845        6.82393      -12.54366
O         -7.98953        6.50394      -11.43209
O         -9.61983        6.86665      -12.87221
C         -7.41706        8.27232      -14.42443
N         -8.30724        9.30657      -14.46764
C         -8.62196       10.07882      -15.55971
C         -9.47954       11.10005      -15.61343
H         -3.90120        4.68990        3.38074
H         -3.86782        0.83320        6.61478
H         -5.72528        5.85246        5.26708
H         -4.41440       -0.56251        1.42790
H         -3.77699        1.96592        0.03682
H         -6.66780        0.83293       -3.88968
H         -4.92193        3.43335       -1.65876
H         -5.19392        2.40571       -4.54956
H         -2.61596        4.07739       -4.22260
H         -6.22871        7.26729       -5.53191
H         -6.79389        5.10197       -4.47303
H          0.21673        6.99873       -5.05396
H         -0.43899        5.60522       -4.20556
H         -1.39083        8.47982       -3.79195
H         -0.33924        7.53607       -2.72950
H         -2.01644        7.04896       -2.94737
H         -0.40705        5.87803       -7.40372
H         -2.04855        5.31225       -7.64085
H          0.01707        4.05134       -5.76379
H         -0.49691        3.46116       -7.34487
H         -1.63531        3.44829       -6.01947
H         -0.30925        8.31229       -7.41656
H         -3.70981       10.93730       -7.88236
H         -5.09440        9.42673       -6.51847
H         -0.50508        9.89945       -9.39033
H         -1.80916       12.48417       -8.33960
H          0.15605       13.26407       -9.85757
H          0.55213       13.57214      -12.49782
H         -0.53680       12.89785      -14.69489
H         -2.14534       12.00580      -16.42808
H         -3.97967       10.73249      -17.63947
H         -5.80437        8.85836      -17.15423
H         -6.04970        5.40034      -13.48018
H         -8.93838        9.46548      -13.68102
H         -8.12507        9.77866      -16.47824
H        -10.01907       11.45281      -14.74271
H         -9.64953       11.61417      -16.55470
