124

C         14.35514      -11.00456        2.76807
C         13.72917      -10.14128        1.96550
C         14.33301       -8.99175        1.34825
C         13.46408       -8.24773        0.64855
C         12.09702       -8.74347        0.69113
S         12.04225      -10.27988        1.56284
C         11.01084       -8.10230        0.21777
C         11.00256       -6.81544       -0.45448
C          9.77906       -6.29262       -0.61626
C          8.72107       -7.12861       -0.09392
S          9.35850       -8.67153        0.43343
C          7.43755       -6.74487       -0.00396
C          6.42921       -7.57425        0.56452
S          5.49706       -8.59091       -0.45086
C          4.63102       -9.28626        0.86325
C          5.08777       -8.76278        2.06963
C          6.05662       -7.70847        1.89174
C          6.63781       -6.93581        3.05186
C          5.90318       -7.19855        4.37568
C          5.60153       -8.69058        4.52938
N          4.98712       -8.93300        5.88584
O          3.75524       -8.82900        5.99936
O          5.76361       -9.21092        6.80370
C          4.63967       -9.17507        3.44724
C          3.62209      -10.26384        0.57205
C          2.52595      -10.36416        1.33848
N          1.47006      -11.24595        1.22455
C          1.31827      -12.24662        0.23574
O          2.04410      -12.49099       -0.71978
C          0.01393      -13.01097        0.53286
C         -0.50139      -12.31172        1.75824
C          0.37243      -11.29236        2.12043
C          0.10793      -10.49564        3.22672
C         -1.05666      -10.73544        3.97317
C         -1.92588      -11.77729        3.59828
C         -1.65410      -12.57038        2.48419
C         -1.39929       -9.87911        5.15776
C          0.21437      -14.50412        0.76189
C          1.53816      -14.84579        1.47122
O          1.88949      -14.35593        2.53603
N          2.18557      -15.84307        0.70008
C          1.41000      -16.14138       -0.44861
C          0.27697      -15.33686       -0.48448
C         -0.63487      -15.42650       -1.52584
C         -0.40362      -16.37058       -2.52865
C          0.71424      -17.22316       -2.47692
C          0.92630      -18.27909       -3.52254
C          1.64214      -17.09105       -1.43170
C          3.40161      -16.42523        0.98759
C          4.18008      -16.20579        2.06146
C          5.42252      -16.89096        2.23550
S          5.62881      -18.51123        1.68163
C          7.24352      -18.59980        2.21185
C          7.64866      -17.41111        2.78896
C          6.58012      -16.44337        2.86294
C          6.77878      -15.09078        3.49861
C          8.08158      -15.00562        4.30431
C          9.25192      -15.63189        3.53404
N         10.55372      -15.46142        4.28297
O         10.53422      -14.88333        5.37795
O         11.57257      -15.89601        3.73159
C          9.02855      -17.13169        3.32284
C          7.98730      -19.78401        1.97596
C          7.99076      -20.78560        2.87576
C          8.78153      -21.98235        2.68518
C         10.11998      -22.03515        2.57068
C         10.86557      -23.24463        2.32806
C         12.18495      -23.04968        2.22845
C         12.59532      -21.66018        2.39287
S         11.18184      -20.65625        2.70635
C         13.84955      -21.17599        2.30597
C         15.04259      -21.94525        2.01374
C         16.16130      -21.20209        1.92406
C         15.93090      -19.80018        2.14227
S         14.26547      -19.46631        2.51599
C         16.85859      -18.84192        2.06702
H         15.40268      -10.88801        3.02191
H         13.83301      -11.85083        3.20534
H         15.38096       -8.75253        1.45896
H         13.75117       -7.34019        0.13887
H         11.90199       -6.31033       -0.77606
H          9.59204       -5.33012       -1.07230
H          7.13478       -5.75731       -0.33851
H          6.60555       -5.86044        2.83501
H          7.69259       -7.21321        3.16587
H          4.96779       -6.62248        4.39587
H          6.51246       -6.82725        5.20899
H          6.53212       -9.27318        4.50494
H          3.64530       -8.74024        3.60346
H          4.54521      -10.26617        3.50532
H          3.76057      -10.89214       -0.30373
H          2.41516       -9.67987        2.16643
H         -0.68490      -12.80407       -0.28661
H          0.77531       -9.69550        3.52623
H         -2.82396      -11.97062        4.18206
H         -2.33251      -13.37087        2.20622
H         -0.61332       -9.14606        5.36622
H         -1.52623      -10.49927        6.05066
H         -2.32770       -9.33224        4.96358
H         -0.59138      -14.92763        1.37714
H         -1.51679      -14.79586       -1.56390
H         -1.11386      -16.45347       -3.34941
H          0.07485      -18.34088       -4.20772
H          1.03792      -19.25991       -3.04704
H          1.82404      -18.05902       -4.10778
H          2.50498      -17.74645       -1.40050
H          3.74245      -17.12331        0.23266
H          3.90128      -15.48425        2.82198
H          5.93976      -14.86063        4.16599
H          6.79064      -14.32645        2.71191
H          7.94678      -15.53013        5.26091
H          8.28174      -13.95475        4.54639
H          9.39488      -15.11305        2.57719
H          9.14951      -17.68155        4.26550
H          9.77624      -17.52310        2.62127
H          8.57761      -19.83350        1.07106
H          7.38171      -20.74168        3.77306
H          8.20167      -22.90225        2.64673
H         10.39592      -24.21053        2.22228
H         12.88893      -23.84587        2.03974
H         15.04112      -23.01375        1.86891
H         17.13428      -21.60300        1.69670
H         17.88676      -19.06078        1.82133
H         16.60535      -17.79814        2.24834
