104

C          5.33038       -7.82838        0.16374
S          5.74148       -6.20973       -0.16680
C          7.42822       -6.50490        0.05830
C          7.64750       -7.84439        0.36906
C          6.43391       -8.60154        0.44144
C          6.33667      -10.00142        0.73351
N          6.23676      -11.12765        0.96880
C          8.95414       -8.40281        0.58467
N         10.00385       -8.87423        0.73219
C          8.38837       -5.46751       -0.14284
C          8.18824       -4.18507        0.20872
C          9.19126       -3.16806       -0.02225
C         10.38812       -3.05311        0.60629
N         10.82700       -3.86331        1.71366
O         10.67991       -5.08871        1.64924
O         11.36906       -3.25983        2.64961
C         11.23634       -2.06470       -0.00878
C         10.55867       -1.51880       -1.02806
C          9.18266       -2.02511       -1.00218
C          8.12738       -1.49210       -1.66854
C          6.81496       -2.14064       -1.78652
C          6.04438       -1.39818       -2.59459
C          6.78758       -0.22512       -2.97793
N          6.23668        0.79143       -3.85164
O          6.51787        1.97807       -3.63530
O          5.46741        0.39888       -4.74021
C          8.02152       -0.19162       -2.42193
C          8.99103        0.84428       -2.70293
C          9.94656        1.35339       -1.91330
C         11.02508        2.17156       -2.41592
N         11.94631        2.83283       -1.59494
C         11.88249        3.01285       -0.15466
C         12.26999        1.79075        0.66424
C         12.94691        3.47064       -2.35851
O         13.89170        4.13646       -1.98641
C         12.55882        3.16759       -3.74863
C         11.38972        2.33511       -3.69842
C         11.04946        1.97876       -5.09462
O         10.16419        1.24707       -5.48834
N         12.00578        2.67818       -5.84851
C         11.96954        2.65708       -7.29921
C         12.27856        1.28145       -7.87372
C         12.88715        3.38140       -5.02788
C         14.00871        4.12704       -5.53546
C         14.50214        5.21991       -4.93517
C         15.67353        6.02433       -5.24725
C         16.62308        5.84508       -6.20088
N         16.74985        4.69416       -7.05042
O         16.82399        3.58080       -6.51513
O         16.83489        4.90780       -8.26737
C         17.54786        6.94740       -6.29544
C         17.22270        7.85233       -5.36436
C         16.02793        7.37790       -4.65790
C         15.40937        8.06123       -3.66498
C         14.69073        7.41234       -2.56745
C         14.27574        8.35603       -1.71412
C         14.68022        9.64167       -2.23249
N         14.30081       10.87081       -1.57165
O         14.05413       11.86581       -2.26222
O         14.21586       10.83011       -0.33586
C         15.37239        9.54377       -3.39500
C         15.86141       10.66686       -4.19249
C         16.01823       10.65380       -5.52579
C         16.48873       11.77514       -6.26121
S         17.96878       11.64967       -7.12078
C         17.76405       13.17023       -7.91154
C         16.60858       13.78515       -7.44811
C         15.89054       12.99502       -6.50128
C         14.63155       13.36672       -5.92956
N         13.60373       13.66182       -5.48615
C         16.14897       15.05369       -7.93393
N         15.76595       16.07097       -8.33764
C         18.70287       13.65722       -8.87636
C         19.43364       12.86686       -9.67209
H          4.29094       -8.13692        0.13043
H          9.35218       -5.76315       -0.55877
H          7.26023       -3.84663        0.66292
H         12.27863       -1.91691        0.23081
H         11.00015       -0.89008       -1.78167
H          6.51056       -3.09105       -1.38738
H          5.04282       -1.62281       -2.92886
H          8.89849        1.24216       -3.70772
H          9.99790        1.04244       -0.87789
H         10.87670        3.35601        0.10913
H         12.57013        3.82267        0.11981
H         11.53918        0.98596        0.57148
H         12.31671        2.05604        1.72631
H         13.24523        1.39588        0.36518
H         12.65803        3.39738       -7.71518
H         10.95822        2.94947       -7.60726
H         13.24652        0.91318       -7.52080
H         12.29832        1.32330       -8.96713
H         11.51775        0.54772       -7.58733
H         14.44751        3.71233       -6.43339
H         13.92560        5.58298       -4.09360
H         18.38132        6.99064       -6.97987
H         17.80013        8.73248       -5.12970
H         14.64453        6.35836       -2.35293
H         13.78471        8.19385       -0.76566
H         16.06105       11.59226       -3.65110
H         15.79141        9.77206       -6.11472
H         18.78577       14.73693       -9.00928
H         19.38988       11.78488       -9.64773
H         20.10125       13.30825      -10.40828
