113

C         -1.70290        0.51561      -10.31131
C         -1.13987        0.39705      -11.58252
F         -0.44891        1.42456      -12.10079
C         -1.29297       -0.76799      -12.32589
F         -0.75832       -0.88028      -13.54786
C         -2.02064       -1.83159      -11.80951
C         -2.60735       -1.71881      -10.54486
C         -2.45746       -0.53616       -9.76078
C         -3.06478       -0.45108       -8.47773
C         -3.84059       -1.50581       -7.99319
C         -3.97210       -2.62081       -8.82656
C         -3.36566       -2.77154      -10.06050
C         -4.86035       -3.61602       -8.25428
O         -5.25763       -4.60242       -8.84387
C         -5.18755       -3.15479       -6.86597
C         -4.62247       -1.77468       -6.73040
C         -4.78460       -0.91056       -5.69723
C         -5.54777       -1.23545       -4.53903
N         -6.17934       -1.50810       -3.60615
C         -4.23397        0.40519       -5.68592
N         -3.80181        1.48424       -5.67740
C         -5.80533       -4.00501       -6.02068
C         -6.13817       -5.40402       -6.30200
C         -5.27481       -6.43755       -6.52793
N         -3.82231       -6.37828       -6.52095
O         -3.22908       -7.46149       -6.40376
O         -3.24595       -5.28641       -6.60602
C         -5.96045       -7.69962       -6.69034
C         -7.26815       -7.50243       -6.50447
C         -7.48457       -6.07646       -6.22638
C         -8.71590       -5.55698       -6.01927
C         -9.09845       -4.15241       -6.15143
C        -10.44101       -4.08843       -6.07930
C        -10.95696       -5.41393       -5.79500
N        -12.35741       -5.69123       -5.54130
O        -13.16917       -4.87746       -6.00347
O        -12.67095       -6.69580       -4.89041
C         -9.96475       -6.32321       -5.71125
C        -10.10229       -7.70502       -5.29504
C         -9.45511       -8.22964       -4.23943
C         -9.56728       -9.60484       -3.88151
C        -10.35932      -10.62379       -4.33884
C        -10.15398      -11.85783       -3.73321
O        -11.00297      -12.82232       -4.14900
C        -11.88825      -12.09768       -5.06625
N        -11.36097      -10.72846       -5.23689
C         -9.16168      -11.88871       -2.78842
S         -8.52921      -10.26884       -2.63723
C         -8.66531      -12.94669       -1.97809
C         -9.19176      -13.35059       -0.79092
N        -10.31373      -12.76767       -0.08708
O        -10.90482      -11.79528       -0.57394
O        -10.61800      -13.29493        0.99441
C         -8.48669      -14.49682       -0.25081
C         -7.55665      -14.86722       -1.13421
C         -7.64380      -13.98862       -2.29129
C         -6.74867      -14.12676       -3.28889
C         -6.10518      -12.96576       -3.89567
C         -4.89434      -13.37485       -4.30402
C         -4.79248      -14.81560       -4.12444
N         -3.57719      -15.53055       -4.50314
O         -2.66244      -14.84930       -4.98868
O         -3.48765      -16.74777       -4.30451
C         -5.92789      -15.34537       -3.59233
C         -6.26511      -16.77383       -3.50608
C         -7.25651      -17.56387       -3.05919
C         -8.57328      -17.39000       -2.47229
C         -9.10449      -18.28805       -1.61800
C        -10.58507      -18.43097       -1.33049
O        -11.45196      -17.60070       -1.49653
C        -10.76773      -19.84360       -0.87601
C        -11.93320      -20.50355       -0.50244
C        -11.85336      -21.87402       -0.16022
C        -10.62344      -22.57354       -0.35044
C        -10.56007      -23.95583       -0.11505
C        -11.65492      -24.62420        0.41754
C        -12.82302      -23.93407        0.70301
C        -12.94197      -22.57875        0.38948
F        -13.84510      -24.56570        1.29706
F        -11.55777      -25.93456        0.68206
C         -9.46418      -21.87170       -0.71457
C         -9.52712      -20.49650       -0.87764
C         -8.47627      -19.45756       -0.99240
C         -7.33924      -19.46363       -0.25071
C         -6.59895      -18.28353        0.06127
N         -5.99720      -17.35703        0.41476
C         -6.87554      -20.62327        0.42894
N         -6.49365      -21.58010        0.97155
H         -1.56099        1.45353       -9.77712
H         -2.13098       -2.73215      -12.40752
H         -2.90748        0.46019       -7.90760
H         -3.50696       -3.69190      -10.62097
H         -6.06920       -3.71942       -5.00739
H         -5.49078       -8.63081       -6.96949
H         -8.01641       -8.26414       -6.65298
H         -8.45140       -3.32135       -6.37524
H        -11.05868       -3.21014       -6.19691
H        -10.77457       -8.30344       -5.90375
H         -8.78456       -7.60326       -3.65417
H        -12.89646      -12.06983       -4.63771
H        -11.90511      -12.62130       -6.02724
H        -12.07248      -10.00247       -5.27414
H         -8.62415      -14.92086        0.73124
H         -6.78277      -15.59439       -0.97709
H         -6.40294      -11.93288       -3.82954
H         -4.09443      -12.74916       -4.67592
H         -5.49201      -17.40090       -3.95040
H         -7.04247      -18.62891       -3.21418
H         -9.19748      -16.59621       -2.88199
H        -12.87488      -19.96289       -0.45143
H         -9.65283      -24.52379       -0.30743
H        -13.87956      -22.08012        0.62128
H         -8.52177      -22.40576       -0.80969
