111

C          0.92738        1.34325        5.92555
C          2.23659        1.24635        6.39245
F          2.86243        2.35145        6.81918
C          2.88920        0.02230        6.42086
F          4.14365       -0.06540        6.88303
C          2.25003       -1.12549        5.97056
C          0.93671       -1.04855        5.48740
C          0.25031        0.20073        5.47175
C         -1.08711        0.27479        5.01057
C         -1.73359       -0.86714        4.54913
C         -1.01334       -2.06571        4.57104
C          0.29086       -2.19134        5.02486
C         -1.82783       -3.17959        4.09698
O         -1.39402       -4.29778        3.91748
C         -3.21666       -2.63359        3.90455
C         -3.11064       -1.15143        4.02342
C         -4.02355       -0.22476        3.63578
C         -5.28522       -0.57318        3.07007
N         -6.31988       -0.85289        2.62432
C         -3.79303        1.17589        3.72652
N         -3.60616        2.32242        3.80489
C         -4.29331       -3.43579        3.81386
C         -4.29433       -4.88192        3.81455
C         -3.65912       -5.65325        2.90778
C         -3.86933       -7.06264        3.24765
C         -4.72635       -7.04982        4.44058
C         -4.97640       -5.76507        4.74928
C         -5.24614       -8.14087        5.17522
N         -5.70598       -9.01601        5.78164
C         -3.35700       -8.10940        2.56717
C         -3.57913       -9.52620        2.86313
C         -2.92323      -10.28119        1.95263
C         -2.21643       -9.36402        1.06791
C         -2.48171       -8.09025        1.39318
C         -1.97635       -6.99564        0.65785
N         -1.57009       -6.11886        0.00924
C         -2.97739      -11.72201        1.89949
N         -3.00603      -12.48503        0.71851
C         -3.08597      -12.02247       -0.65158
C         -4.51525      -11.85552       -1.13642
C         -3.06582      -13.86879        0.99535
O         -3.11182      -14.81597        0.23751
C         -3.04986      -13.90649        2.46088
C         -2.99951      -12.55697        2.94862
C         -2.97495      -12.62484        4.42588
O         -2.88881      -11.69521        5.20179
N         -3.03047      -14.01102        4.68014
C         -2.97005      -14.56343        6.02116
C         -4.33627      -14.67868        6.67759
C         -3.06561      -14.74212        3.49706
C         -3.12241      -16.17016        3.46026
C         -2.20142      -16.93194        2.84904
C         -2.30728      -18.35324        2.80276
S         -0.86136      -19.28098        2.73557
C         -1.69514      -20.79436        2.71056
C         -3.06199      -20.57921        2.76446
C         -3.41586      -19.19467        2.75855
C         -4.76333      -18.73152        2.71109
N         -5.86224      -18.35279        2.69013
C         -4.05349      -21.61603        2.79392
N         -4.86787      -22.43498        2.86977
C         -0.88968      -21.97096        2.64232
C         -1.31122      -23.17107        3.06655
C         -0.41496      -24.26806        3.09560
S          0.51378      -24.43825        4.53963
C          1.24735      -25.86193        3.99545
C          0.84778      -26.21191        2.72269
C         -0.13563      -25.26974        2.17097
C         -0.59962      -25.43469        0.71245
C         -1.94786      -24.92096        0.17963
F         -2.70610      -24.25353        1.06069
F         -1.72096      -24.08340       -0.86965
F         -2.71507      -25.92723       -0.31456
C         -0.47936      -26.91529        0.30179
C          0.92335      -27.43540        0.52333
C          1.33826      -27.45180        1.99734
O          2.76745      -27.56600        2.07759
C          3.27720      -28.77537        1.52287
H          0.45215        2.32079        5.92060
H          2.78725       -2.06989        6.00447
H         -1.58117        1.24048        5.04562
H          0.77267       -3.16642        5.02111
H         -5.30196       -3.03508        3.78567
H         -3.05996       -5.25919        2.10477
H         -5.58039       -5.41386        5.57355
H         -4.18692       -9.92172        3.66112
H         -1.56156       -9.66684        0.26597
H         -2.58054      -12.75862       -1.28772
H         -2.54033      -11.09257       -0.78757
H         -5.07225      -12.79422       -1.05774
H         -4.51889      -11.54355       -2.18608
H         -5.04481      -11.09581       -0.55324
H         -2.33927      -13.90626        6.62976
H         -2.48089      -15.54349        5.99504
H         -4.82584      -13.70226        6.74715
H         -4.23238      -15.07989        7.69150
H         -4.99542      -15.34740        6.11489
H         -3.97778      -16.59110        3.98052
H         -1.33123      -16.46537        2.38759
H          0.13240      -21.86903        2.28041
H         -2.29004      -23.35152        3.49816
H          1.95354      -26.37939        4.63139
H          0.16466      -24.88093        0.14489
H         -0.71642      -27.03598       -0.76143
H         -1.19330      -27.52528        0.87188
H          1.63658      -26.83529       -0.05727
H          0.96785      -28.45099        0.11727
H          0.88588      -28.31472        2.50567
H          4.36721      -28.70910        1.49525
H          2.94826      -28.92849        0.49136
H          2.98190      -29.63167        2.13482
