100

C          1.64819        0.78092       -6.78556
N          1.32185        1.08034       -5.46951
C          1.25446        0.09286       -4.40901
C          2.58182       -0.10136       -3.69429
C          1.01074        2.44536       -5.30488
O          0.67692        3.05435       -4.30943
C          1.15441        2.97589       -6.68168
C          1.55171        1.88321       -7.52704
C          1.68506        2.38720       -8.90072
O          2.00334        1.74778       -9.88174
N          1.35151        3.75169       -8.76241
C          1.36240        4.65971       -9.89255
C          2.71617        5.32438      -10.10105
C          1.02872        4.07305       -7.43645
C          0.62341        5.38983       -7.00719
C         -0.23193        5.58086       -5.99149
C         -0.72335        6.83924       -5.49798
C         -0.85502        7.08273       -4.17622
C         -1.50270        8.38341       -3.99109
C         -1.79774        8.86221       -5.35295
C         -1.32716        7.94792       -6.22150
C         -2.54996        9.99311       -5.74224
N         -3.18606       10.91317       -6.06165
C         -1.77241        8.96256       -2.79926
C         -2.39684       10.27047       -2.60564
C         -2.56161       10.49637       -1.28310
C         -2.03816        9.33970       -0.57261
C         -1.54826        8.44033       -1.44452
C         -0.98369        7.20816       -1.04839
N         -0.52174        6.19731       -0.70505
C         -3.20501       11.64303       -0.71231
C         -2.83403       12.32001        0.43911
C         -1.70661       12.09743        1.41193
C         -0.45043       12.86077        1.01657
S         -3.85316       13.68345        0.70827
C         -4.77333       13.40575       -0.70405
C         -4.33127       12.27405       -1.34853
C         -5.83340       14.35803       -1.21109
C         -6.86294       14.07750       -2.09768
C         -7.39178       12.79027       -2.67021
C         -8.48906       12.19967       -1.79384
S         -7.69915       15.51588       -2.55122
C         -6.70287       16.51718       -1.58657
C         -5.85991       15.73959       -0.81573
C         -6.87787       17.92756       -1.64912
C         -5.89607       18.83497       -1.53694
C         -6.32027       20.24582       -1.27623
O         -7.40316       20.75446       -1.47574
C         -5.16067       20.89429       -0.64702
C         -5.14153       22.18703       -0.14786
C         -3.95732       22.65252        0.42751
C         -2.82188       21.79102        0.50388
C         -1.63720       22.28244        1.07459
C         -1.57718       23.58830        1.55473
C         -2.68572       24.41914        1.48162
C         -3.87410       23.96118        0.92442
F         -2.62051       25.67478        1.94458
F         -0.43276       24.03842        2.08676
C         -2.89156       20.47298       -0.00303
C         -4.06189       20.01999       -0.59977
C         -4.43956       18.77223       -1.33374
C         -3.56792       17.91958       -1.92820
C         -3.94685       17.09603       -3.02746
N         -4.21260       16.46967       -3.97271
C         -2.19409       17.83881       -1.56286
N         -1.08882       17.74970       -1.22333
H          1.91003       -0.21624       -7.10451
H          0.92274       -0.85767       -4.84225
H          0.49591        0.40876       -3.68423
H          3.38138       -0.35218       -4.39852
H          2.50453       -0.91632       -2.96599
H          2.87562        0.80591       -3.15741
H          0.60643        5.43256       -9.73173
H          1.07236        4.10951      -10.79738
H          2.98901        5.93159       -9.23146
H          2.67914        5.98302      -10.97517
H          3.51766        4.59646      -10.26040
H          1.05658        6.23903       -7.52826
H         -0.60328        4.71952       -5.43771
H         -0.53530        6.39490       -3.41056
H         -1.44334        7.96985       -7.29590
H         -2.69223       10.96376       -3.37547
H         -2.07036        9.21651        0.49928
H         -1.46253       11.03687        1.49675
H         -2.01297       12.40659        2.41964
H         -0.10498       12.57032        0.01907
H          0.35507       12.65441        1.72910
H         -0.62406       13.94221        1.01253
H         -4.72241       11.93129       -2.29398
H         -6.60683       12.04965       -2.80936
H         -7.79861       12.95905       -3.67512
H         -8.11064       11.93760       -0.80023
H         -8.89397       11.29283       -2.25447
H         -9.31626       12.90599       -1.66275
H         -5.19017       16.16516       -0.07927
H         -7.90564       18.28028       -1.75331
H         -6.03061       22.80881       -0.21987
H         -0.74493       21.66534        1.14565
H         -4.72256       24.63911        0.87940
H         -2.00978       19.84482        0.07714
