88

C          2.35182       -0.35630        0.26738
C          1.08514       -0.70704        0.04776
C          0.29907        0.43941       -0.28982
C          1.00635        1.57558       -0.26467
C          2.36874        1.11070        0.12588
O          3.36209        1.79722        0.27845
C          0.59110        2.93506       -0.52877
C         -0.50292        3.56656       -0.01246
N         -1.53287        3.00449        0.84300
O         -2.04971        3.77223        1.66811
O         -1.90206        1.84322        0.66920
C         -0.53082        4.97283       -0.32714
C          0.54309        5.26543       -1.06424
C          1.27626        4.02771       -1.35002
C          2.30001        3.96801       -2.24334
C          3.10282        2.78274       -2.54917
C          4.10084        3.13525       -3.37277
C          3.95323        4.53279       -3.69431
N          4.82194        5.21763       -4.62673
O          5.35263        4.52205       -5.50468
O          5.02231        6.42941       -4.47254
C          2.86545        5.07706       -3.10351
C          2.37365        6.41760       -3.36022
C          1.16675        6.71354       -3.88269
C          0.66541        8.07171       -3.95325
C          0.61460        8.82604       -2.83493
C          0.20871       10.17127       -3.14674
O          0.03302       11.13072       -2.18628
C          0.86771       11.01295       -1.03725
C         -0.02011       10.30470       -4.47317
C          0.20738        8.95181       -5.06483
C         -0.04159        8.58403       -6.33952
C         -0.10476        7.21937       -6.83739
C         -0.53096        7.27290       -8.11205
O         -0.82922        6.28255       -8.99628
C         -0.66396        4.97423       -8.45583
C         -0.69046        8.64768       -8.52023
C         -0.37747        9.43468       -7.47998
C         -0.45829       11.55689       -5.04652
C         -1.61506       11.70823       -5.70556
C         -2.05705       12.95201       -6.26517
C         -3.25833       13.48685       -5.96358
C         -3.41393       14.73252       -6.70990
C         -2.18532       14.85996       -7.52279
C         -1.39595       13.81524       -7.23069
C         -1.82042       15.86209       -8.43889
N         -1.54042       16.71309       -9.19834
C         -4.47381       15.56210       -6.63068
C         -4.66425       16.76588       -7.43538
C         -5.83197       17.35173       -7.09152
C         -6.43033       16.54702       -6.04430
C         -5.65562       15.47038       -5.75758
C         -5.96155       14.51449       -4.75765
N         -6.22536       13.73029       -3.94253
C         -6.32422       18.56088       -7.68240
C         -5.93277       19.19563       -8.79747
C         -6.71681       20.37470       -9.03610
C         -7.63504       20.53277       -8.08102
C         -7.44010       19.39344       -7.16458
O         -8.09573       19.19863       -6.15920
H          3.20068       -0.97067        0.50389
H          0.67701       -1.70687        0.09063
H         -0.74760        0.33116       -0.53171
H         -1.26423        5.67572        0.04321
H          0.80460        6.26392       -1.35306
H          2.97918        1.78336       -2.18139
H          4.87416        2.48936       -3.76174
H          3.05819        7.22425       -3.09162
H          0.47040        5.92371       -4.14513
H          0.87950        8.48622       -1.84860
H          0.65841       11.85519       -0.37274
H          1.92310       11.05053       -1.32629
H          0.65447       10.10004       -0.47049
H          0.06153        6.32404       -6.27201
H         -0.97174        4.24221       -9.20595
H         -1.29559        4.83486       -7.57043
H          0.38795        4.79294       -8.20812
H         -0.97566        8.97786       -9.50604
H         -0.34265       10.50744       -7.52499
H          0.18401       12.41369       -4.85312
H         -2.28118       10.85755       -5.84901
H         -3.95865       13.03021       -5.28688
H         -0.42387       13.60928       -7.65627
H         -3.99927       17.13937       -8.19506
H         -7.36172       16.79147       -5.54776
H         -5.13865       18.88582       -9.46441
H         -6.57068       21.03152       -9.88249
H         -8.37807       21.29827       -7.95448
