85

C         -0.68428       -3.87313        6.52009
C         -0.17164       -3.35867        5.34040
C         -0.58441       -3.81892        4.03702
N         -0.04326       -3.21648        2.95218
C          0.89611       -2.26489        3.13271
C          1.29164       -1.86753        4.38403
N          0.75281       -2.39806        5.49869
C         -1.52240       -4.87979        3.88012
C         -2.06540       -5.42971        5.08124
C         -1.63583       -4.90215        6.41789
N         -2.23086       -5.50856        7.45541
S         -3.23836       -6.65756        6.81724
N         -2.95166       -6.43616        5.20215
C         -1.90817       -5.49550        2.58689
C         -3.12095       -6.07912        2.18307
C         -3.01450       -6.68287        0.90706
C         -1.77630       -6.45558        0.36173
S         -0.70006       -5.67197        1.34027
C         -1.70597       -7.06618       -0.90100
C         -2.87543       -7.74054       -1.14621
C         -3.79637       -7.50874       -0.02686
C         -5.06446       -7.94988        0.12136
C         -5.68557       -8.75226       -0.87402
N         -6.19260       -9.41175       -1.68454
C         -5.84063       -7.63357        1.26865
N         -6.48659       -7.37666        2.19923
C         -2.78876       -8.46646       -2.36375
C         -1.54092       -8.29694       -2.99047
S         -0.59079       -7.11734       -2.11473
C         -0.97420       -8.91302       -4.22345
C          0.40790       -9.19573       -4.41999
C          0.92227       -9.75465       -5.64262
N          2.25577       -9.96348       -5.76757
C          3.09875       -9.61459       -4.76532
C          2.61405       -9.11011       -3.59412
N          1.28163       -8.92768       -3.41930
C          3.45300       -8.75515       -2.48906
N          4.15809       -8.48403       -1.60719
C          4.49552       -9.80280       -5.01830
N          5.63353       -9.94218       -5.20078
C          0.08559      -10.09097       -6.73139
C         -1.30735       -9.84762       -6.57288
C         -1.84669       -9.24703       -5.29995
N         -3.17919       -9.07235       -5.34826
S         -3.70833       -9.61692       -6.81473
N         -2.27107      -10.07582       -7.48329
C          0.56504      -10.57503       -8.04550
C          0.01476      -11.51321       -8.93523
C          0.69161      -11.50756      -10.18022
C          1.70357      -10.58169      -10.17249
S          1.95261       -9.78894       -8.74762
C          2.19012      -10.41794      -11.47607
C          1.51191      -11.25494      -12.32495
C          0.56466      -12.05660      -11.53922
C         -0.21903      -13.06411      -11.96013
C         -0.22241      -13.49444      -13.31984
N         -0.22621      -13.84844      -14.42418
C         -1.06250      -13.77478      -11.06075
N         -1.74155      -14.35499      -10.31970
C          1.87927      -11.00678      -13.66925
C          2.80671       -9.95626      -13.77133
S          3.19168       -9.32329      -12.19290
C          3.39546       -9.29856      -14.96123
C          4.69742       -8.72135      -15.00776
C          5.18589       -8.03849      -16.17753
N          6.39632       -7.45715      -16.20909
C          7.14894       -7.52874      -15.09321
C          6.71633       -8.18797      -13.97293
N          5.51513       -8.79636      -13.93222
C          4.44805       -7.92589      -17.34481
C          3.15679       -8.48216      -17.35311
C          2.60340       -9.17416      -16.14210
N          1.34068       -9.59793      -16.34032
S          0.92401       -9.20974      -17.89536
N          2.31086       -8.45340      -18.39307
H         -0.35847       -3.50391        7.48582
H          1.32481       -1.83948        2.23267
H          2.05359       -1.11086        4.53058
H         -3.99818       -6.09766        2.81889
H         -3.56129       -9.11403       -2.76140
H         -0.88623      -12.07305       -8.71241
H          1.46484      -11.50687      -14.53755
H          8.11405       -7.03779      -15.12930
H          7.31161       -8.24658      -13.06902
H          4.84621       -7.41814      -18.21570
