88

C          1.95500       -0.45529       -0.88557
O          1.32279       -0.98120       -1.77457
C          3.28998        0.14087       -1.00276
C          3.54771        0.96352        0.10604
C          4.81851        1.49614        0.25619
C          5.80127        1.19316       -0.70825
C          5.50729        0.36416       -1.81332
C          4.22809       -0.16754       -1.97090
Br         6.80501       -0.13830       -3.10556
Br         7.53591        1.91429       -0.40934
C          2.33343        0.95766        0.97086
C          1.94112        1.92556        1.82961
C          2.71476        3.10133        2.04641
N          3.35956        4.05247        2.20554
C          0.68488        1.87071        2.49986
N         -0.33674        1.80889        3.04554
C          1.56003       -0.22404        0.54046
C          0.90482       -1.11237        1.30748
C          0.54806       -2.43193        0.88099
C          1.20390       -3.31535        0.01314
C          0.55540       -4.56094       -0.06314
C         -0.51707       -4.61530        0.79256
S         -0.84168       -3.20373        1.60400
C         -1.02471       -5.92955        0.78927
C         -0.27964       -6.70334       -0.07127
C          0.72387       -5.85670       -0.72081
C          1.55758       -6.16738       -1.73303
C          1.57682       -7.46677       -2.30894
N          1.59374       -8.52997       -2.77360
C          2.43589       -5.20235       -2.30258
N          3.16188       -4.41803       -2.75637
C         -0.68614       -8.05788       -0.03102
C         -1.73025       -8.25359        0.88262
S         -2.22825       -6.73458        1.58749
C         -2.42745       -9.49982        1.27164
C         -2.95683       -9.69218        2.55280
F         -2.80792       -8.76415        3.51102
C         -3.63841      -10.85994        2.90427
F         -4.15408      -10.90969        4.14255
C         -3.79333      -11.93109        2.01355
C         -3.25678      -11.74632        0.73419
C         -2.59171      -10.56090        0.37290
F         -2.11083      -10.46309       -0.87671
F         -3.35366      -12.72024       -0.18464
C         -4.45827      -13.19523        2.40939
C         -5.19851      -14.11588        1.65140
C         -5.64352      -15.20793        2.44143
C         -5.23055      -15.07152        3.74418
S         -4.29952      -13.74490        4.05970
C         -5.66474      -16.17931        4.49173
C         -6.32816      -17.05123        3.66482
C         -6.40043      -16.46308        2.31933
C         -7.04854      -16.94211        1.24016
C         -7.78929      -18.15714        1.29564
N         -8.40008      -19.13959        1.35403
C         -7.06140      -16.23653        0.00444
N         -7.07808      -15.65273       -0.99656
C         -6.69160      -18.22901        4.36288
C         -6.27713      -18.19092        5.70320
S         -5.58681      -16.62831        6.08096
C         -6.46461      -19.18121        6.72071
C         -5.64550      -19.41365        7.76062
C         -6.18880      -20.17723        8.93356
O         -7.12411      -20.94771        8.95523
C         -5.39588      -19.72302       10.09538
C         -4.38541      -18.83860        9.68147
C         -4.35565      -18.86095        8.19553
C         -3.23828      -18.73106        7.43900
C         -3.19211      -19.20217        6.09249
N         -3.14092      -19.62983        5.01492
C         -2.00985      -18.23483        7.95937
N         -1.02132      -17.81026        8.39370
C         -3.63364      -18.17764       10.64204
C         -3.84699      -18.47801       11.99998
C         -4.81671      -19.42700       12.38600
C         -5.61923      -20.04568       11.42340
Br        -5.10610      -19.92604       14.19583
Br        -2.76342      -17.54926       13.25764
H          5.08732        2.09939        1.11880
H          3.97610       -0.84600       -2.78227
H          0.73468       -0.90190        2.36163
H          2.11785       -3.06223       -0.50808
H         -0.24223       -8.86994       -0.59596
H         -5.38688      -13.98213        0.59185
H         -7.19574      -19.09105        3.94018
H         -7.40402      -19.73395        6.66826
H         -2.88857      -17.43393       10.37308
H         -6.39726      -20.75454       11.69255
