110

C         -4.41164        0.71072       -6.28001
C         -4.33402        0.33582       -7.62505
F         -4.03180        1.25458       -8.54591
C         -4.56713       -0.97960       -8.01313
F         -4.46361       -1.33795       -9.29897
C         -4.91757       -1.93103       -7.07292
C         -5.03182       -1.56340       -5.73305
C         -4.74536       -0.23049       -5.29391
C         -4.79845        0.08998       -3.90896
C         -5.16752       -0.88793       -2.98924
C         -5.49716       -2.15294       -3.49324
C         -5.42667       -2.52109       -4.81801
C         -5.82600       -3.08678       -2.42550
O         -6.37251       -4.15504       -2.58713
C         -5.33605       -2.43206       -1.17806
C         -5.25478       -0.97881       -1.49215
C         -5.43526        0.04937       -0.62328
C         -5.53626        1.39903       -1.07046
N         -5.63497        2.49022       -1.45787
C         -5.62093       -0.16632        0.78273
N         -5.73996       -0.34105        1.91808
C         -4.82525       -3.15791       -0.16720
C         -4.80647       -4.60506       -0.05989
N         -3.63129       -5.36246        0.00916
C         -2.28465       -4.91510       -0.22944
C         -3.89740       -6.74985        0.11712
O         -3.12053       -7.68032        0.18262
C         -5.36442       -6.80072        0.13554
C         -5.84708       -5.44506        0.01326
C         -7.31873       -5.49496       -0.02175
O         -8.08181       -4.55338       -0.10716
N         -7.58456       -6.87661        0.09328
C         -8.92469       -7.39518        0.11703
C         -6.41096       -7.62922        0.16234
C         -6.32049       -9.04639        0.07872
S         -6.36066       -9.73623       -1.48980
C         -6.03887      -11.33844       -0.94562
C         -6.03464      -11.37277        0.44255
C         -6.18957      -10.04874        1.03525
C         -6.20025       -9.85928        2.52918
C         -5.64542      -11.07608        3.28519
C         -6.19925      -12.41490        2.76674
N         -7.65345      -12.52688        2.95255
C         -5.80718      -12.61140        1.28600
C         -5.87838      -12.40963       -1.89022
C         -5.33379      -12.19365       -3.09939
C         -5.23754      -13.16242       -4.17492
C         -5.25084      -12.83409       -5.47934
C         -5.22797      -13.77600       -6.57351
C         -5.53862      -13.22858       -7.75965
C         -5.83867      -11.80677       -7.68976
S         -5.43847      -11.20244       -6.08609
C         -6.41632      -11.05189       -8.64481
C         -6.86085      -11.50381       -9.95063
C         -7.60762      -10.60619      -10.61070
C         -7.79487       -9.36826       -9.88794
S         -6.85545       -9.35543       -8.41954
C         -8.62506       -8.38525      -10.26631
C         -8.86495       -7.15934       -9.52462
C        -10.05873       -6.74517       -9.07105
C        -10.44691       -5.47673       -8.41197
C         -9.67015       -4.66756       -7.64873
C        -10.16873       -3.50011       -7.00075
N        -10.56423       -2.53613       -6.48810
C         -8.29088       -4.92552       -7.39857
N         -7.15879       -5.08847       -7.20014
C        -11.92224       -5.33822       -8.61681
C        -12.41987       -6.55102       -9.09850
C        -11.32975       -7.50452       -9.33572
O        -11.47677       -8.64845       -9.71264
C        -13.75658       -6.78183       -9.40536
C        -14.65851       -5.70705       -9.25286
C        -14.16627       -4.47482       -8.79787
C        -12.80066       -4.26963       -8.47200
S        -15.42534       -3.29372       -8.71691
C        -16.57712       -4.39078       -9.28004
C        -16.06850       -5.63809       -9.52234
Br       -18.37372       -3.93822       -9.55486
H         -4.21789        1.74944       -6.02537
H         -5.09062       -2.95534       -7.39620
H         -4.52590        1.09824       -3.59848
H         -5.65712       -3.54604       -5.10679
H         -4.30535       -2.65844        0.64713
H         -2.19848       -3.82771       -0.20529
H         -1.96872       -5.28953       -1.20941
H         -1.62306       -5.35421        0.52417
H         -9.64624       -6.57191        0.11021
H         -9.06541       -7.97383        1.03378
H         -9.09994       -8.02196       -0.76055
H         -7.23537       -9.68097        2.84610
H         -5.61936       -8.97299        2.80646
H         -5.84934      -10.96830        4.35773
H         -4.55150      -11.09360        3.18144
H         -5.74855      -13.22703        3.35120
H         -8.13306      -11.93871        2.27028
H         -7.91941      -12.18218        3.87341
H         -6.34603      -13.47233        0.87066
H         -4.73765      -12.85823        1.23955
H         -6.24764      -13.39441       -1.61759
H         -4.95839      -11.20141       -3.34397
H         -5.20133      -14.20981       -3.88621
H         -5.01585      -14.82641       -6.43107
H         -5.60156      -13.79992       -8.67437
H         -6.64607      -12.48830      -10.34017
H         -8.05831      -10.78996      -11.57637
H         -9.21282       -8.50763      -11.17495
H         -7.96687       -6.56259       -9.39060
H        -14.07911       -7.74754       -9.78521
H        -12.48856       -3.28174       -8.15509
H        -16.65667       -6.47045       -9.88960
