95

C          6.86894        2.45941       10.71652
C          6.01650        3.29188       11.42737
F          5.55494        2.89325       12.61975
C          5.61624        4.51614       10.91004
C          6.08237        4.92823        9.65791
C          6.93131        4.10264        8.90273
C          7.31759        2.84055        9.44728
C          8.07725        1.94392        8.68838
C          8.35786        2.26047        7.37026
C          8.07031        3.54122        6.87172
C          7.36749        4.47422        7.61656
C          8.53760        3.65807        5.46406
O          8.49243        4.64735        4.76482
C          9.10443        2.30578        5.11855
C          8.71376        1.41599        6.20912
C          8.17112        0.18360        6.05927
C          7.73469       -0.27425        4.78847
N          7.29471       -0.63089        3.77325
C          7.94942       -0.69876        7.14816
N          7.86188       -1.43471        8.04181
C          9.92169        2.09029        4.06922
N         10.71534        0.97588        3.69603
C         11.45478        0.96417        2.51813
C         12.16702        2.05067        2.04592
S         13.04315        1.70922        0.62109
C         12.47890        0.10069        0.60306
C         11.64676       -0.20118        1.66690
N         11.11205       -1.46640        1.86389
C         10.81318       -1.90494        3.23824
C         11.70330       -1.26727        4.27496
O         12.62959       -1.88324        4.81546
C         11.31717        0.11076        4.74725
C         10.81098       -2.33443        0.80755
C         10.28341       -3.56870        0.83314
C         10.07254       -4.36986       -0.34834
C         11.02376       -4.80753       -1.19773
C         12.49877       -4.53472       -1.05204
C         10.63698       -5.61034       -2.41320
N         10.66901       -7.01851       -2.08746
C          9.61346       -7.77836       -1.65094
C          9.64840       -9.08315       -1.35361
C          8.47852       -9.84875       -0.95700
C          8.45166      -11.15959       -0.66552
C          7.24807      -11.92064       -0.41418
C          7.44146      -13.24954       -0.41779
C          8.82448      -13.63698       -0.63502
S          9.84989      -12.19784       -0.61178
C          9.29889      -14.86599       -0.91550
C          8.53907      -16.07615       -1.16531
C          9.26189      -17.05323       -1.74179
C         10.64819      -16.68844       -1.98127
S         11.00688      -15.19639       -1.15328
C         11.50560      -17.39393       -2.74262
C         12.83187      -17.00353       -3.09003
S         13.38415      -15.38858       -3.46230
C         15.02534      -15.86859       -3.72963
C         15.06369      -17.21283       -3.65385
C         13.87907      -17.82956       -3.31580
O         13.90033      -19.19226       -3.23211
C         15.23379      -19.40956       -3.54388
N         15.65648      -20.77826       -3.54631
O         16.84837      -20.98186       -3.81254
O         14.81103      -21.64500       -3.29618
C         15.98169      -18.25734       -3.80890
H          7.13549        1.49828       11.14926
H          4.93377        5.13768       11.48114
H          5.74665        5.88540        9.26385
H          8.35345        0.98426        9.11526
H          7.10140        5.43258        7.17840
H         10.01687        2.90889        3.35202
H         12.25643        3.03458        2.48297
H         12.82376       -0.56072       -0.17980
H         10.98254       -2.98335        3.34614
H          9.76243       -1.73202        3.48133
H         12.19637        0.60708        5.17169
H         10.62522       -0.07690        5.56376
H         11.04320       -1.91485       -0.17011
H          9.95629       -4.03507        1.75736
H          9.03709       -4.67121       -0.50451
H         12.75815       -4.00581       -0.13081
H         12.85076       -3.92469       -1.89053
H         13.06178       -5.47335       -1.04420
H         11.33039       -5.40580       -3.23693
H          9.64278       -5.31982       -2.77503
H         11.57130       -7.47996       -2.14900
H          8.68512       -7.21678       -1.56907
H         10.59258       -9.61144       -1.45737
H          7.53863       -9.30023       -0.96134
H          6.28272      -11.45211       -0.28109
H          6.64508      -13.96632       -0.27823
H          7.47961      -16.15895       -0.96810
H          8.84790      -18.00382       -2.05067
H         11.16634      -18.34339       -3.15345
H         15.79803      -15.14470       -3.94672
H         17.02944      -18.21507       -4.07263
