97

C          8.89287       -2.06159      -12.48048
C          8.69573       -1.86641      -13.84128
F          8.61165       -2.93016      -14.65033
C          8.55801       -0.59056      -14.37112
C          8.64763        0.52186      -13.53183
C          8.83527        0.35865      -12.15082
C          8.93058       -0.96228      -11.61578
C          8.99647       -1.16473      -10.22900
C          8.90143       -0.06867       -9.39016
C          8.93715        1.22775       -9.92925
C          8.90149        1.46649      -11.29192
C          9.00751        2.23166       -8.84518
O          9.09133        3.43099       -8.97119
C          9.02289        1.42956       -7.57322
C          8.63034        0.06695       -7.93994
C          7.78348       -0.74497       -7.25986
C          7.08166       -0.28501       -6.10598
N          6.46883        0.10761       -5.20334
C          7.43434       -2.04932       -7.71529
N          7.20022       -3.12372       -8.08460
C          9.56192        1.94589       -6.45447
C          9.93733        1.21296       -5.24139
C         10.41664       -0.09868       -5.18462
N         10.75459       -0.82860       -4.08114
C         10.72946       -0.28114       -2.82139
C         10.35492        1.09394       -2.72293
C          9.95182        1.85028       -3.97440
N          9.63869        3.13553       -3.72670
S          9.82251        3.37603       -2.09976
N         10.29444        1.86538       -1.62082
C         11.08827       -1.15406       -1.69777
C         10.84336       -2.54622       -1.76811
C         11.12044       -3.42390       -0.70428
C         11.65101       -2.88414        0.47569
C         11.92133       -1.52430        0.51131
C         11.67974       -0.64219       -0.53363
O         12.42728       -1.15898        1.71479
C         12.43543       -2.27387        2.48488
C         11.98299       -3.37490        1.76801
C         11.91044       -4.61404        2.42163
C         12.26574       -4.67013        3.77535
C         12.72381       -3.53610        4.46741
C         12.81815       -2.30068        3.81848
C         13.05697       -3.57904        5.89202
C         13.52549       -4.68019        6.49396
C         13.86573       -4.72492        7.90513
C         13.24031       -3.99573        8.91852
N         13.51131       -4.03614       10.25766
C         14.47965       -4.86997       10.74122
C         15.21451       -5.66956        9.83120
C         14.88012       -5.60017        8.36695
N         15.63871       -6.42393        7.61921
S         16.67251       -7.19816        8.65677
N         16.21810       -6.52424       10.10255
C         14.76600       -4.85871       12.16516
C         13.90280       -4.56056       13.14628
C         14.50135       -4.15865       14.45553
O         15.61815       -4.38635       14.87214
C         13.47613       -3.33707       15.11482
C         13.65298       -2.61734       16.28318
C         12.59182       -1.83699       16.74429
C         11.37726       -1.78130       15.98925
C         10.32261       -0.99103       16.46409
C         10.46220       -0.27950       17.65091
C         11.63975       -0.32600       18.38520
C         12.70503       -1.10159       17.92932
F          9.44056        0.46409       18.09533
C         11.24624       -2.51656       14.79275
C         12.29174       -3.32147       14.36176
C         12.46475       -4.25205       13.20928
C         11.46342       -4.88013       12.54394
C         11.70094       -5.98758       11.67589
N         11.87474       -6.90600       10.98670
C         10.08890       -4.56378       12.73971
N          8.96918       -4.29827       12.89578
H          8.97496       -3.07962      -12.10866
H          8.37468       -0.47044      -15.43425
H          8.53457        1.51494      -13.96239
H          9.05836       -2.17639       -9.83799
H          8.87778        2.48639      -11.66587
H          9.81441        3.00772       -6.43849
H         10.57185       -0.66448       -6.10130
H         10.40218       -2.96953       -2.67160
H         10.89802       -4.48350       -0.78875
H         11.92767        0.40422       -0.40736
H         11.55593       -5.50408        1.91136
H         12.15811       -5.62427        4.28737
H         13.15095       -1.39580        4.31300
H         12.93081       -2.64355        6.43287
H         13.70514       -5.59719        5.93695
H         12.43374       -3.30542        8.67068
H         15.81897       -5.00860       12.40461
H         14.60183       -2.66501       16.81166
H          9.37941       -0.92345       15.92824
H         11.72035        0.23999       19.30741
H         13.62096       -1.12865       18.51282
H         10.32162       -2.42943       14.22878
