90

C         -3.79140       -1.82025        0.22264
C         -3.27339       -0.74477        0.85963
C         -2.12979       -0.83639        1.70562
N         -1.19440       -0.91595        2.38716
C         -3.78296        0.57068        0.65941
N         -4.21608        1.63545        0.50269
C         -3.25458       -3.20799        0.25862
C         -3.63982       -3.85195       -0.91904
C         -3.32566       -5.17087       -1.21697
C         -2.66561       -5.92419       -0.21957
C         -2.32228       -5.29640        0.98961
C         -2.58685       -3.92664        1.24252
S         -1.59156       -6.41689        2.08460
C         -1.75856       -7.69214        0.99238
C         -2.30718       -7.31601       -0.20390
Br        -1.25997       -9.45366        1.38867
C         -4.54107       -2.99085       -1.70561
O         -4.90523       -3.20503       -2.84111
C         -4.85347       -1.82743       -0.80690
C         -6.00111       -1.12916       -0.80830
C         -7.10841       -1.40371       -1.66544
S         -7.18708       -0.57990       -3.17273
C         -8.66319       -1.31430       -3.58455
C         -9.14156       -2.16091       -2.60422
C        -10.43740       -2.90122       -2.73320
C         -8.24352       -2.19609       -1.46529
C         -8.51005       -2.99916       -0.29145
C         -8.08723       -2.76369        0.96180
C         -8.35350       -3.63191        2.08934
C         -7.54322       -3.65000        3.15870
C         -7.76462       -4.50301        4.31867
C         -8.51636       -4.13190        5.43435
N         -8.71556       -4.85549        6.58153
C         -8.12700       -6.07817        6.75125
C         -7.35737       -6.61238        5.68756
C         -7.16571       -5.78312        4.43146
N         -6.39910       -6.39945        3.51283
S         -5.97955       -7.87226        4.15032
N         -6.74698       -7.81004        5.61993
C         -8.37054       -6.79475        7.99738
C         -7.65106       -6.65015        9.12065
C         -7.99581       -7.24961       10.39004
C         -7.18454       -6.89267       11.39795
C         -6.10016       -6.01039       10.99959
S         -6.20525       -5.68544        9.26269
C         -5.16506       -5.46365       11.80212
C         -5.06812       -5.57865       13.24928
C         -4.20482       -4.71109       13.80256
C         -3.57510       -3.83842       12.83787
S         -3.87392       -4.41628       11.21279
C         -2.92813       -2.70021       13.13462
C         -2.42860       -1.72037       12.17395
C         -3.22215       -1.00600       11.36403
C         -2.76936       -0.08691       10.27810
C         -1.34529        0.19327       10.12479
C         -0.42358       -0.39433       10.89443
S         -0.69051       -1.55474       12.14798
N         -3.72997        0.41963        9.52680
C         -4.88508       -0.14446       10.11221
C         -4.60806       -0.93841       11.18660
S         -5.99140       -1.51456       11.92167
C         -7.00172       -0.81606       10.67757
C         -6.23992       -0.06942        9.77887
C         -8.39896       -1.07797       10.72426
C         -9.29368       -0.23869       10.18991
H         -3.64923       -5.62082       -2.15136
H         -2.32553       -3.50518        2.20797
H         -2.49010       -7.99741       -1.02616
H         -6.19821       -0.37905       -0.04892
H         -9.12384       -1.08240       -4.53530
H        -10.86494       -2.78222       -3.73529
H        -11.16769       -2.52113       -2.01155
H        -10.29629       -3.97291       -2.56264
H         -9.10999       -3.89295       -0.45885
H         -7.50829       -1.87545        1.18868
H         -9.22321       -4.28390        2.03432
H         -6.64358       -3.04093        3.19907
H         -9.01028       -3.15984        5.45034
H         -9.25958       -7.41549        7.98481
H         -8.85343       -7.89688       10.51135
H         -7.32609       -7.23226       12.41417
H         -5.66801       -6.26284       13.83106
H         -4.04250       -4.61482       14.86931
H         -2.77149       -2.42876       14.17669
H         -1.07480        0.90842        9.35656
H          0.61657       -0.12769       10.72096
H         -6.64421        0.46054        8.92605
H         -8.74592       -1.98415       11.21753
H         -9.00777        0.69186        9.71020
H        -10.35301       -0.46416       10.24181
