88

C         -1.64488        0.40189        2.74835
C         -0.49809        0.87681        3.28802
C          0.76746        0.23239        3.09825
N          1.78554       -0.28660        2.96149
C         -0.48338        2.01753        4.14667
N         -0.48154        2.95747        4.83033
C         -1.80438       -0.85822        1.94209
C         -3.15719       -1.18524        1.96459
C         -3.76613       -2.25020        1.32944
C         -2.92419       -3.09844        0.60018
C         -1.54036       -2.83818        0.59164
C         -0.95943       -1.71141        1.24704
S         -0.71742       -4.07309       -0.29647
C         -2.15960       -4.86900       -0.67250
C         -3.26706       -4.25142       -0.16302
Br        -2.23894       -6.44759       -1.67809
C         -3.86911       -0.31599        2.86436
O         -4.73534       -0.77456        3.57277
C         -3.03572        0.90628        3.00490
C         -3.47089        2.17974        3.04377
C         -4.83120        2.66643        2.92357
S         -4.99055        4.14378        2.00819
C         -6.67627        4.16323        2.14182
C         -7.17387        3.09501        2.85445
C         -8.64268        2.89842        3.05830
C         -6.09782        2.27743        3.38893
C         -6.27559        1.18917        4.31435
C         -7.36657        0.42719        4.49280
C         -7.40673       -0.77696        5.29154
C         -8.45522       -1.61175        5.21861
C         -8.53817       -2.82608        6.01178
C         -9.10012       -2.82382        7.28257
N         -9.16848       -3.93086        8.06633
C         -8.62903       -5.05795        7.53951
C         -8.12754       -5.05835        6.23505
N         -8.06442       -3.95313        5.44899
C         -8.73310       -6.25006        8.39733
C         -7.90785       -7.30586        8.47065
C         -8.17120       -8.51090        9.23265
C         -7.46082       -9.57035        8.80411
C         -6.61958       -9.24726        7.66749
S         -6.41588       -7.49540        7.59578
C         -6.23978      -10.07150        6.67403
C         -6.50851      -11.48801        6.52611
C         -6.48280      -11.89902        5.24403
C         -6.19398      -10.82875        4.30060
S         -5.57032       -9.45860        5.17893
C         -6.49148      -10.85423        2.98452
C         -6.38365       -9.77154        1.96531
C         -7.36804       -9.53656        0.94048
O         -8.43905      -10.41969        0.97337
C         -9.05625      -10.76361       -0.26595
C         -7.28688       -8.43850        0.01190
O         -8.31783       -8.26178       -0.88407
C         -7.98489       -7.67720       -2.14227
C         -6.25561       -7.48605        0.05728
C         -5.24862       -7.69926        1.01620
C         -5.26563       -8.88278        1.93643
N         -4.11580       -8.96857        2.63091
S         -3.28013       -7.56441        2.39795
N         -4.21038       -6.87784        1.21858
H         -4.83508       -2.41863        1.42137
H          0.11435       -1.57137        1.19184
H         -4.28236       -4.61263       -0.28168
H         -2.71968        2.96113        2.97029
H         -7.24747        4.96501        1.69239
H         -9.23292        3.68461        2.57950
H         -8.88622        2.90002        4.12536
H         -8.96815        1.95635        2.60337
H         -5.38387        0.90090        4.86786
H         -8.29234        0.63447        3.98144
H         -6.53924       -1.02023        5.90278
H         -9.28644       -1.44018        4.54327
H         -9.52072       -1.91887        7.70761
H         -7.76456       -5.95761        5.75160
H         -9.63015       -6.23983        9.01235
H         -8.90927       -8.55247       10.02037
H         -7.55977      -10.56951        9.20114
H         -6.74774      -12.13112        7.36112
H         -6.70092      -12.91008        4.92924
H         -6.98476      -11.74565        2.60113
H         -8.31684      -11.06223       -1.01706
H         -9.71091       -9.97024       -0.63619
H         -9.71415      -11.61938       -0.08487
H         -8.07496       -6.58787       -2.08685
H         -8.70989       -8.03913       -2.87790
H         -6.98850       -7.96946       -2.49213
H         -6.21147       -6.61847       -0.58615
