117

C         -3.98968       -1.55445        5.08207
C         -4.07253       -1.93406        6.37201
C         -2.97697       -2.46911        7.09555
N         -2.08510       -2.89461        7.70163
C         -5.26796       -1.83784        7.15465
N         -6.22248       -1.76416        7.80193
C         -2.78200       -1.65915        4.19245
C         -3.11410       -1.20547        2.91545
C         -2.22747       -1.12805        1.84354
C         -0.90130       -1.55349        2.05824
C         -0.55534       -2.04372        3.32514
C         -1.47952       -2.10231        4.40233
S          1.09821       -2.54361        3.36641
C          1.34100       -2.09506        1.75790
C          0.22274       -1.57528        1.16327
Br         2.98137       -2.29392        0.87612
C         -4.52103       -0.81372        2.84814
O         -5.06971       -0.45798        1.82881
C         -5.06914       -0.96175        4.24933
C         -6.29471       -0.52131        4.58638
C         -7.20773        0.11895        3.64259
C         -8.09776       -0.69414        2.92353
C         -8.84373       -0.17779        1.85708
C         -8.70451        1.15470        1.48704
C         -7.89488        1.97717        2.25695
C         -7.15105        1.47133        3.32732
N         -6.41050        2.51696        3.90284
C         -5.57620        2.45349        5.06956
C         -6.62249        3.70625        3.22386
O         -6.12127        4.78805        3.51286
C         -7.57973        3.42779        2.04689
C         -8.71248        4.45286        2.09688
C        -10.09257        4.00874        1.56134
O        -10.81278        3.13757        2.02574
N        -10.39723        4.80997        0.45768
C        -11.59273        4.65833       -0.32948
C         -9.40730        5.76811        0.24114
C         -9.34312        6.75059       -0.72228
C         -8.17787        7.51748       -0.80455
C         -7.11641        7.30831        0.08914
C         -7.22637        6.35779        1.09444
C         -8.37989        5.59324        1.16132
C         -8.14550        8.62715       -1.75646
C         -7.06227        9.07108       -2.41366
C         -7.19295       10.26710       -3.16872
O         -8.11729       11.22161       -2.78463
C         -7.99284       12.30021       -3.58068
C         -7.00737       12.08500       -4.50626
N         -6.63912       13.04958       -5.49136
O         -7.26417       14.11752       -5.49694
O         -5.71779       12.74369       -6.26202
C         -6.50305       10.76243       -4.28024
N         -5.51928       10.17391       -5.02114
C         -5.19759        8.83907       -5.22066
C         -4.16300        8.36306       -5.93557
C         -3.82520        6.97925       -6.17556
C         -2.62426        6.80449       -6.75777
C         -1.90378        8.04763       -6.99258
S         -2.98349        9.41759       -6.66071
C         -0.61078        8.21631       -7.34081
C          0.38881        7.20983       -7.65593
C          1.62747        7.70649       -7.84097
C          1.71167        9.13976       -7.65862
S          0.13331        9.81685       -7.38732
C          2.83709        9.87414       -7.68479
C          2.91241       11.30182       -7.42019
C          2.61745       11.94248       -6.27904
C          2.17821       11.50791       -4.93536
C          2.59345       10.41965       -4.24788
C          2.19109       10.15456       -2.90408
N          1.87859        9.93787       -1.81161
C          3.56168        9.49759       -4.74095
N          4.36745        8.74410       -5.09074
C          1.42237       12.65378       -4.34744
C          1.67559       13.79299       -5.11558
C          2.44786       13.43773       -6.32275
O          2.81932       14.20389       -7.18775
C          1.22834       15.06788       -4.77763
C          0.46592       15.20767       -3.59456
C          0.14782       14.05396       -2.85968
C          0.59360       12.76266       -3.23912
S         -0.82206       14.43647       -1.48102
C         -0.76024       16.08789       -1.81792
C         -0.07154       16.38396       -2.96487
Br        -1.55877       17.38253       -0.72484
H         -2.55490       -0.74728        0.87893
H         -1.12534       -2.49051        5.34935
H          0.18967       -1.22813        0.13726
H         -6.70946       -0.55672        5.58477
H         -8.18675       -1.75244        3.15514
H         -9.51245       -0.82528        1.29562
H         -9.24250        1.53446        0.62454
H         -4.61558        2.00482        4.80323
H         -6.06743        1.88865        5.86401
H         -5.37839        3.46095        5.45430
H         -6.98434        3.49971        1.12511
H         -8.88430        4.84685        3.10657
H        -11.78766        3.59226       -0.48340
H        -11.49596        5.13552       -1.30761
H        -12.43627        5.09091        0.21504
H        -10.16971        6.92734       -1.40110
H         -6.20658        7.90163        0.03879
H         -6.40154        6.22967        1.78621
H         -9.10331        9.13527       -1.87593
H         -6.09152        8.59410       -2.33238
H         -8.66062       13.12271       -3.35997
H         -4.98846       10.77253       -5.66928
H         -5.88469        8.14499       -4.74675
H         -4.48319        6.16832       -5.89402
H         -2.21156        5.83057       -6.98476
H          0.16310        6.15615       -7.74678
H          2.49418        7.10367       -8.08038
H          3.78665        9.40211       -7.93118
H          3.17931       11.89250       -8.29868
H          1.47179       15.92462       -5.40072
H          0.29191       11.91374       -2.63559
H          0.06394       17.39050       -3.34173
