98

C         10.35159       -2.81939        6.63233
C          9.73145       -2.20052        5.62619
C          8.87862       -1.05055        5.75990
C          8.17814       -0.79384        4.64637
C          8.39564       -1.77853        3.58744
S          9.79820       -2.75639        3.97442
C          7.54070       -2.02055        2.57532
C          6.32329       -1.26737        2.35930
C          5.40391       -1.95974        1.68526
C          5.83839       -3.30248        1.31198
S          7.55672       -3.44312        1.49703
C          4.90690       -4.20315        0.97335
C          4.67981       -5.59562        0.50689
C          3.62100       -5.68164       -0.45220
C          3.20410       -6.81804       -1.14211
S          1.96853       -6.53471       -2.36998
C          1.53842       -4.93598       -1.63913
C          2.76927       -4.46118       -0.85428
C          3.67703       -8.00871       -0.68604
C          4.50888       -7.98387        0.45255
C          4.47887       -9.34612        1.11158
C          4.14080      -10.41763        0.06504
S          3.10930       -9.60575       -1.18257
C          5.17726       -6.85453        1.01542
C          6.27567       -7.01453        2.04813
C          6.22161       -6.24567        3.24062
C          7.28496       -5.96389        4.12757
S          6.84041       -4.94353        5.49825
C          5.24245       -4.53917        4.73098
C          4.91076       -5.70223        3.79728
C          8.50654       -6.50622        3.84253
C          8.55906       -7.40276        2.77757
C          9.97537       -7.95402        2.56752
C         10.75352       -7.77371        3.87785
S         10.01820       -6.35354        4.73994
C          7.47672       -7.80547        1.95691
C          7.64513       -9.14906        1.36119
C          7.79220       -9.34298       -0.02157
C          7.96624      -10.57729       -0.67958
S          7.99069      -10.44999       -2.43777
C          7.37342       -8.73174       -2.36373
C          7.80377       -8.18022       -0.99718
C          8.17727      -11.68375        0.10482
C          8.08110      -11.51311        1.48882
C          8.37298      -12.79162        2.26360
C          9.02629      -13.80068        1.30651
S          8.56207      -13.32819       -0.39449
C          7.76021      -10.32667        2.16160
C          7.78122      -10.33546        3.64112
C          6.79918      -10.49361        4.53800
C          7.03801      -10.42140        5.96657
C          5.91541      -10.41744        6.70115
C          4.70511      -10.47337        5.90739
S          5.11637      -10.78266        4.21937
C          3.46229      -10.21362        6.36173
C          3.12757       -9.80341        7.71409
C          1.87618       -9.32046        7.84140
C          1.13889       -9.35924        6.60823
S          2.02059      -10.16307        5.34566
C         -0.06654       -8.81212        6.41281
H         10.24338       -2.48727        7.65825
H         10.94379       -3.71284        6.46059
H          8.78704       -0.49093        6.68029
H          7.45188        0.00325        4.59008
H          6.14280       -0.27823        2.75436
H          4.41380       -1.57755        1.47596
H          3.92399       -3.77181        1.15274
H          0.69847       -5.10010       -0.95168
H          1.21932       -4.20550       -2.38744
H          2.37924       -3.93363        0.02303
H          3.37696       -3.77712       -1.45471
H          3.67722       -9.30824        1.85978
H          5.37576       -9.61432        1.63141
H          3.62010      -11.27051        0.50783
H          5.04015      -10.78336       -0.43724
H          5.36880       -3.60871        4.16879
H          4.46780       -4.37439        5.48314
H          4.17294       -5.40022        3.05522
H          4.45432       -6.51967        4.36962
H         10.44287       -7.37131        1.76452
H         10.02155       -9.00428        2.27617
H         11.82623       -7.64663        3.70831
H         10.61359       -8.64803        4.52390
H          6.28057       -8.76789       -2.42841
H          7.75360       -8.13124       -3.19356
H          7.16592       -7.34771       -0.70898
H          8.83647       -7.81134       -1.05235
H          7.42731      -13.19133        2.64784
H          9.04841      -12.60703        3.10611
H          8.73051      -14.82898        1.53307
H         10.11807      -13.73679        1.38393
H          8.78682      -10.18962        4.02931
H          8.02846      -10.33885        6.39083
H          5.92322      -10.32755        7.77857
H          3.82670       -9.82436        8.53814
H          1.47250       -8.92403        8.75952
H         -0.58107       -8.27789        7.20539
H         -0.56080       -8.86667        5.44998
