106

C        -13.54064       13.39053        1.04277
C        -13.37200       12.15578        1.56655
C        -14.10063       11.03033        1.09891
N        -14.69825       10.11309        0.71639
C        -12.51059       11.93796        2.68886
N        -11.82326       11.75973        3.60242
C        -14.53516       13.81832        0.03988
C        -14.87296       15.15438        0.31490
C        -15.74016       15.88624       -0.47459
C        -16.20208       15.28985       -1.65570
C        -15.78539       13.96849       -2.00307
C        -14.97706       13.22055       -1.12659
C        -16.14796       13.44524       -3.25110
C        -16.92486       14.19166       -4.13762
C        -17.37251       15.45989       -3.77787
C        -17.01634       16.00526       -2.54372
C        -13.96765       15.69997        1.35737
O        -13.98748       16.80603        1.85047
C        -12.92855       14.62821        1.52143
C        -11.64141       15.00537        1.59449
C        -10.56614       14.19575        1.10552
C        -10.54996       13.26629        0.05641
C         -9.28098       12.68739       -0.11696
C         -8.35354       13.26392        0.71755
S         -8.96215       14.40945        1.75623
C         -7.08858       12.71705        0.42045
C         -7.22272       11.79378       -0.59410
C         -8.62809       11.69445       -0.97126
C         -9.19952       10.85412       -1.85697
C         -8.44084        9.90901       -2.60435
N         -7.83542        9.12479       -3.20638
C        -10.60809       10.84467       -2.04993
N        -11.76496       10.86584       -2.16408
C         -5.98368       11.22646       -0.95716
C         -4.95923       11.74774       -0.17701
S         -5.53958       12.91488        0.97411
C         -3.51064       11.38232       -0.27234
C         -2.65178       11.51926        0.79792
O         -1.39297       11.17984        0.44791
C         -1.43774       10.83451       -0.85906
C         -2.72958       10.84620       -1.35225
C         -3.13489       10.52855       -2.72708
O         -4.05317       11.15768       -3.24925
C         -2.42739        9.43441       -3.40698
C         -1.36328        8.62790       -3.03851
C         -0.99894        7.67730       -4.03712
C         -1.81993        7.72897       -5.14228
S         -2.99265        8.96567       -4.96592
C         -1.75869        6.86377       -6.29802
C         -1.30690        5.54078       -6.32903
C         -1.41440        4.99768       -7.62908
C         -1.90274        5.92559       -8.51947
S         -2.25104        7.41046       -7.87212
C         -2.01032        5.33088       -9.79199
C         -1.61917        4.01438       -9.70267
C         -1.17820        3.73631       -8.33356
C         -0.62941        2.60273       -7.85233
C         -0.43497        1.45751       -8.67079
N         -0.27938        0.51667       -9.33380
C         -0.18316        2.50687       -6.50417
N          0.18690        2.43896       -5.40661
C         -1.78189        3.34651      -10.93511
C         -2.16890        4.23678      -11.93982
S         -2.48336        5.82622      -11.30469
C         -2.41435        3.98593      -13.31834
C         -1.48187        4.06054      -14.28597
C         -1.62236        3.82773      -15.75128
C         -2.58517        3.10988      -16.38705
C         -2.58597        2.87190      -17.79153
N         -2.60096        2.67894      -18.93639
C         -3.65469        2.47113      -15.69783
N         -4.52397        1.94781      -15.13257
C         -0.38693        4.37546      -16.39652
C          0.52815        4.70586      -15.39118
C         -0.06945        4.53965      -14.05777
O          0.49622        4.79578      -13.01509
C          1.81026        5.17403      -15.64488
C          2.20103        5.36068      -16.97526
C          1.27902        5.09116      -18.02188
C         -0.01291        4.60178      -17.71841
C          1.67842        5.32150      -19.34991
C          2.95979        5.79542      -19.64175
C          3.86361        6.04266      -18.61304
C          3.48673        5.82760      -17.28741
H        -15.96565       16.91951       -0.22752
H        -14.64055       12.22740       -1.41390
H        -15.80428       12.45896       -3.55899
H        -17.17701       13.78236       -5.11285
H        -17.98601       16.03444       -4.46736
H        -17.36122       17.00674       -2.29415
H        -11.40414       16.03256        1.87367
H        -11.41597       13.04762       -0.55315
H         -5.83457       10.47019       -1.71607
H         -2.77986       11.82336        1.82861
H         -0.46817       10.62081       -1.28599
H         -0.83219        8.68016       -2.09977
H         -0.17418        6.98234       -3.92896
H         -0.95603        5.02093       -5.44625
H         -1.61346        2.29303      -11.12274
H         -3.44617        3.74235      -13.53658
H          2.47993        5.39889      -14.81891
H         -0.69063        4.42520      -18.54712
H          0.99348        5.13411      -20.17483
H          3.25268        5.97034      -20.67443
H          4.86223        6.40760      -18.84082
H          4.20730        6.03187      -16.49779
