102

C          1.56655      -14.43799       -8.36646
C          2.40842      -13.43044       -8.80547
C          2.45084      -12.11702       -8.20424
N          3.30805      -11.20351       -8.71869
C          4.09314      -11.56397       -9.78019
C          4.03384      -12.82303      -10.33437
N          3.18631      -13.76264       -9.84649
C          4.84790      -13.23207      -11.44651
N          5.50994      -13.54672      -12.34118
C          4.97784      -10.55842      -10.28164
N          5.70880       -9.76330      -10.71534
C          1.61809      -11.77103       -7.10875
C          0.69992      -12.77381       -6.67236
C          0.70032      -14.13377       -7.30270
N         -0.18752      -14.98050       -6.76501
S         -0.98266      -14.14034       -5.57675
N         -0.26737      -12.65301       -5.74705
C          1.56280      -10.44349       -6.49280
C          1.63671       -9.13903       -7.21711
N          1.39686       -8.05800       -6.53169
C          1.14676       -8.54337       -5.29155
C          1.32166       -9.98387       -5.25540
C          1.08268      -10.43691       -3.83936
S          1.56248      -11.83281       -3.07278
C          0.50173       -9.20768       -3.21838
C          0.67658       -8.10156       -4.12998
N          0.21654       -6.94773       -3.57933
C         -0.25974       -7.34949       -2.43301
C         -0.15601       -8.80671       -2.13578
C         -0.70861       -9.47171       -0.98472
C         -1.70116      -10.39664       -1.14739
C         -2.38579      -10.95406        0.01732
C         -3.44460      -11.81256        0.14618
C         -4.21482      -12.57629       -0.94607
C         -3.56710      -13.97535       -1.17428
N         -4.18506      -14.75358       -2.25687
C         -5.75147      -12.67500       -0.69238
N         -6.56164      -13.39271       -1.68299
C         -3.70028      -11.85059        1.60450
C         -4.70003      -12.34246        2.35596
C         -4.76990      -12.22509        3.87465
C         -3.58515      -11.49292        4.47657
C         -2.59114      -10.97016        3.74004
C         -2.66706      -11.09230        2.30777
C         -1.90913      -10.53376        1.35782
C         -0.79917       -9.62591        1.49363
C         -0.25130       -9.11539        0.37671
C         -4.91145      -13.61333        4.45269
C         -5.01515      -13.92362        5.75508
C         -5.05240      -15.26913        6.23917
C         -4.83466      -16.51710        5.45288
N         -4.77671      -17.63499        6.11753
C         -4.93883      -17.22185        7.39818
C         -5.14088      -15.78949        7.46383
C         -5.27760      -15.39050        8.90082
S         -5.73606      -13.93972        9.56560
C         -4.94979      -16.67034        9.59851
C         -4.83298      -17.72684        8.62273
N         -4.50399      -18.90156        9.21542
C         -4.37224      -18.56160       10.46577
C         -4.61640      -17.13588       10.80044
C         -4.35550      -16.47515       12.05954
C         -5.31046      -16.27973       13.06634
C         -4.97190      -15.63399       14.31025
N         -5.88272      -15.48272       15.28300
C         -7.13781      -15.95662       15.05551
C         -7.47397      -16.55867       13.86397
N         -6.56602      -16.72929       12.86397
C         -8.79321      -17.05575       13.59574
N         -9.86160      -17.45026       13.39882
C         -8.05937      -15.82071       16.14327
N         -8.81586      -15.73501       17.02062
C         -3.69775      -15.15270       14.58800
C         -2.70717      -15.33887       13.60363
C         -3.03368      -16.01742       12.31000
N         -1.96886      -16.12432       11.49707
S         -0.68567      -15.42942       12.28979
N         -1.42488      -14.96353       13.70114
H          1.55388      -15.41595       -8.83559
H          1.86697       -9.12322       -8.29194
H         -0.72691       -6.67561       -1.69731
H         -2.05969      -10.68134       -2.13089
H         -4.09771      -12.01447       -1.88377
H         -3.61249      -14.56513       -0.25173
H         -2.51033      -13.85357       -1.43635
H         -5.19487      -14.80896       -2.04950
H         -3.85247      -15.71597       -2.22676
H         -6.16262      -11.66798       -0.56137
H         -5.93767      -13.24713        0.20862
H         -6.34092      -13.06775       -2.62291
H         -7.55007      -13.20470       -1.51552
H         -5.55554      -12.84787        1.94539
H         -5.68059      -11.65722        4.10764
H         -3.55579      -11.37865        5.55604
H         -1.75752      -10.45782        4.20433
H         -0.43481       -9.35428        2.47718
H          0.57794       -8.41790        0.46654
H         -4.92150      -14.41144        3.71358
H         -5.01870      -13.12820        6.49728
H         -4.71436      -16.46353        4.36158
H         -4.09200      -19.26322       11.26507
H         -3.46508      -14.66755       15.52989
