150

C         -3.77227        0.21982        6.83327
C         -4.13538       -0.30718        8.07644
C         -4.43355       -1.66746        8.21880
C         -4.34827       -2.53414        7.12728
C         -3.94081       -2.02569        5.90069
C         -3.67406       -0.63776        5.74348
C         -3.37163       -0.38338        4.29555
C         -2.59128        0.60815        3.80786
C         -2.04414        1.63477        4.63315
N         -1.59485        2.46663        5.30599
C         -2.13977        0.60772        2.45706
N         -1.74033        0.59945        1.36961
C         -3.87020       -1.59921        3.57104
C         -3.74324       -2.68822        4.57580
C         -3.24370       -3.93221        4.38856
C         -2.76572       -4.36301        3.11356
N         -2.35602       -4.72070        2.09092
C         -3.08321       -4.86139        5.45531
N         -2.96678       -5.62092        6.32752
C         -4.58534       -1.55995        2.41670
C         -5.32720       -2.62918        1.76459
C         -5.60567       -2.85307        0.37886
C         -6.39607       -4.05697        0.18992
C         -6.23165       -4.82517        1.32039
S         -6.04374       -3.91906        2.69850
C         -6.17558       -6.28358        1.09114
C         -6.37392       -6.36760       -0.45758
C         -7.03778       -4.96391       -0.88601
C         -8.59916       -4.95744       -0.63512
C         -9.32991       -3.66548       -0.99122
C         -6.73161       -4.66214       -2.35935
C         -7.22897       -5.70363       -3.36217
C         -7.10242       -7.67378       -0.80991
C         -7.23385       -8.53698        0.43528
S         -7.42928       -7.34357        1.77627
C         -4.90332       -2.13476       -0.68613
C         -5.43965       -1.80639       -1.89946
C         -4.53892       -1.54170       -3.02620
C         -4.67955       -1.60059       -4.38738
C         -5.86167       -1.62402       -5.35022
C         -6.30012       -3.06362       -5.67205
N         -7.41699       -3.20274       -6.60793
C         -7.02743       -0.74124       -4.81262
N         -8.22279       -0.66939       -5.66416
C         -3.27993       -1.74333       -4.84207
C         -2.77237       -2.75474       -5.58494
C         -1.32364       -3.24351       -5.38498
C         -0.43665       -2.24510       -4.64513
C         -0.95341       -1.24463       -3.92092
C         -2.38058       -1.23322       -3.82392
C         -3.11428       -1.28552       -2.70916
C         -2.61633       -1.39507       -1.37570
C         -3.45407       -1.89042       -0.45858
C         -0.71520       -3.65187       -6.68880
C          0.52676       -4.15059       -6.79197
C          1.14539       -4.45283       -8.04005
C          2.23854       -5.30206       -8.29814
C          2.35324       -5.54251       -9.71633
C          1.35563       -4.85478      -10.39353
S          0.53670       -3.73710       -9.49884
C          1.21344       -5.21510      -11.81093
C          1.83183       -6.63879      -11.73177
C          3.06542       -6.46318      -10.74338
C          4.19688       -5.68642      -11.50011
C          5.46698       -5.41532      -10.70749
C          3.60007       -7.82161      -10.24622
C          2.64479       -8.76170       -9.52244
C          1.84667       -7.09819      -13.17373
C          0.37200       -6.94885      -13.61171
S         -0.33233       -5.56948      -12.61727
C          2.77926       -6.09162       -7.22348
C          3.74951       -5.91858       -6.30164
C          4.13594       -7.03576       -5.36504
C          3.32080       -7.79208       -4.57888
C          1.90655       -7.60652       -4.58024
N          0.75699       -7.44646       -4.58127
C          3.81475       -8.72597       -3.62951
N          4.21613       -9.50500       -2.85780
C          5.62321       -6.97041       -5.26509
C          6.03881       -5.69407       -5.72516
C          7.39285       -5.37707       -5.76581
C          8.32578       -6.31370       -5.31659
C          7.91505       -7.57540       -4.87633
C          6.56081       -7.91802       -4.86566
C          4.82637       -4.90743       -6.15333
C          4.74788       -3.55804       -6.07362
C          5.84003       -2.75774       -5.61473
N          6.70944       -2.10466       -5.21513
C          3.56406       -2.79988       -6.24112
N          2.67543       -2.05385       -6.29558
H         -3.59660        1.28797        6.76137
H         -4.20624        0.35021        8.94167
H         -4.74446       -2.05146        9.18894
H         -4.62033       -3.57576        7.26541
H         -4.64581       -0.61025        1.88509
H         -5.18519       -6.67775        1.35097
H         -5.37114       -6.39741       -0.91477
H         -8.81633       -5.15651        0.42051
H         -9.09201       -5.75773       -1.19302
H         -8.85249       -2.78729       -0.54986
H        -10.35757       -3.71334       -0.61181
H         -9.39579       -3.53009       -2.07450
H         -5.65371       -4.53142       -2.50412
H         -7.21232       -3.72238       -2.63509
H         -6.70654       -6.65315       -3.25071
H         -7.04131       -5.38973       -4.38952
H         -8.30726       -5.86172       -3.28309
H         -6.53996       -8.22346       -1.57534
H         -8.08919       -7.50715       -1.24615
H         -6.32155       -9.12158        0.59564
H         -8.08255       -9.22174        0.36903
H         -6.49052       -1.93956       -2.09530
H         -5.53195       -1.15936       -6.29220
H         -6.58783       -3.51071       -4.73054
H         -5.47814       -3.65403       -6.07956
H         -8.15147       -2.54673       -6.30420
H         -7.82289       -4.13241       -6.51457
H         -6.65952        0.28032       -4.66105
H         -7.36936       -1.11336       -3.84552
H         -7.95217       -0.35912       -6.59947
H         -8.85514        0.04138       -5.29665
H         -3.41046       -3.41701       -6.15687
H         -1.38284       -4.14965       -4.76236
H          0.64066       -2.35670       -4.66969
H         -0.34980       -0.52910       -3.37759
H         -1.56630       -1.24207       -1.15765
H         -3.01809       -2.14622        0.49882
H         -1.34416       -3.52975       -7.56491
H          1.10116       -4.31926       -5.88613
H          1.78411       -4.52902      -12.44504
H          1.12966       -7.30734      -11.20281
H          3.83562       -4.71064      -11.84580
H          4.47447       -6.24097      -12.40573
H          5.25062       -4.94819       -9.74351
H          6.11015       -4.73256      -11.27483
H          6.03753       -6.33300      -10.54281
H          4.45907       -7.66354       -9.58437
H          3.98169       -8.36948      -11.11895
H          2.39572       -8.39993       -8.53004
H          3.12805       -9.73378       -9.37836
H          1.71343       -8.93602      -10.06197
H          2.18610       -8.13165      -13.28525
H          2.48491       -6.46190      -13.79763
H         -0.19593       -7.85645      -13.38199
H          0.28115       -6.73755      -14.68036
H          2.19744       -7.00612       -7.12480
H          7.76191       -4.42839       -6.14190
H          9.38496       -6.06261       -5.32147
H          8.65965       -8.29966       -4.55072
H          6.28852       -8.92211       -4.55617
