124

C         -0.65598       -1.82144       12.01432
O         -0.90933       -1.37455       10.91515
C          0.08243       -1.09055       13.04559
C          0.28160       -1.88887       14.17901
C          1.09395       -1.38994       15.18910
C          1.62754       -0.08919       15.07359
C          1.35030        0.70925       13.94788
C          0.57600        0.19746       12.90798
Br         1.99324        2.48308       13.74631
Br         2.73911        0.50689       16.49706
C         -0.46880       -3.17038       13.99287
C         -0.80443       -4.04038       14.97802
C         -0.41555       -3.86004       16.33582
N         -0.10352       -3.70739       17.44306
C         -1.63930       -5.17464       14.75978
N         -2.31856       -6.09793       14.57650
C         -0.93253       -3.18807       12.58138
C         -1.39506       -4.20047       11.83060
C         -1.83400       -4.15152       10.45276
C         -2.85627       -3.36134       10.05061
C         -3.20971       -3.65552        8.68139
C         -4.21302       -2.97333        7.95397
N         -5.04619       -2.42351        7.36334
C         -2.44817       -4.66422        8.22909
C         -1.53727       -5.05481        9.30922
C         -0.60328       -6.02922        9.26356
C         -0.39955       -7.07463        8.23463
C          0.61010       -7.85204        8.69178
C          1.13139       -7.32716        9.93030
C          0.43469       -6.23787       10.27454
C          2.21455       -7.88485       10.64324
N          3.09605       -8.34241       11.24447
C         -1.15755       -7.41008        7.05113
C         -0.63421       -8.06889        6.01138
C         -1.29534       -8.29748        4.74581
C         -1.39321       -9.58094        4.31468
C         -1.54999       -9.80754        2.89391
C         -1.39502      -10.95089        2.17825
C         -1.39755      -12.39238        2.65041
C         -2.57085      -13.15547        1.97203
N         -2.69482      -14.55633        2.39393
C         -0.06307      -13.16510        2.52402
N          1.08023      -12.49905        3.15287
C         -1.08225      -10.45384        0.83891
C         -0.33810      -11.00502       -0.12766
C          0.17777      -10.19520       -1.30820
C         -0.42168       -8.79882       -1.41934
C         -1.17360       -8.25012       -0.45022
C         -1.35938       -9.02608        0.74301
C         -1.61700       -8.63492        1.99387
C         -1.81242       -7.31654        2.53229
C         -1.65038       -7.16763        3.85951
C         -0.03186      -10.95989       -2.57955
C          0.52094      -12.15995       -2.81326
C          0.34096      -12.83783       -4.06054
C          1.39543      -12.98463       -4.89169
C          0.94015      -13.48734       -6.16530
C          1.78917      -13.71041       -7.26618
N          2.50083      -13.89799       -8.16801
C         -0.39410      -13.65068       -6.13886
C         -0.85906      -13.32033       -4.78958
C         -2.11776      -13.48409       -4.32343
C         -3.30488      -14.01457       -5.03544
C         -4.34105      -13.90792       -4.17401
C         -3.88835      -13.40708       -2.90012
C         -2.57037      -13.17237       -2.96180
C         -4.72486      -13.28445       -1.76488
N         -5.41823      -13.19962       -0.83904
C         -3.48745      -14.68360       -6.30598
C         -3.95310      -15.94477       -6.36477
C         -4.21418      -16.67016       -7.57956
C         -4.96170      -17.75991       -7.82776
C         -4.76047      -18.29258       -9.22668
O         -4.03253      -17.86535      -10.10046
C         -5.60580      -19.47432       -9.35893
C         -6.30748      -19.71636       -8.17429
C         -5.91508      -18.67863       -7.14500
C         -6.42735      -18.64967       -5.88595
C         -6.23388      -17.60215       -4.94658
N         -6.14727      -16.79588       -4.11776
C         -7.25114      -19.68801       -5.34289
N         -7.90272      -20.52481       -4.88606
C         -7.23997      -20.75176       -8.19735
C         -7.41791      -21.52781       -9.36234
C         -6.66396      -21.27074      -10.51794
C         -5.74414      -20.22552      -10.52017
Br        -6.85273      -22.26453      -12.12312
Br        -8.73921      -22.89490       -9.28322
H          1.34741       -1.97301       16.06876
H          0.36644        0.77112       12.00906
H         -1.46592       -5.20903       12.22978
H         -3.37786       -2.63119       10.65279
H         -2.47889       -5.04746        7.22455
H          0.99168       -8.75492        8.23591
H          0.65524       -5.61051       11.11975
H         -2.19580       -7.10370        7.00291
H          0.40427       -8.39863        6.01848
H         -1.09831      -10.41542        4.94065
H         -1.63398      -12.38421        3.72476
H         -2.48468      -13.12707        0.87975
H         -3.51149      -12.65191        2.22892
H         -2.10298      -15.14060        1.80274
H         -3.64822      -14.87124        2.20078
H          0.18269      -13.38074        1.48160
H         -0.17376      -14.14551        3.00247
H          0.74943      -11.82633        3.84237
H          1.61749      -13.19198        3.67427
H          0.05381      -12.00510       -0.01903
H          1.25985      -10.05603       -1.16713
H         -0.18670       -8.21438       -2.30446
H         -1.57143       -7.24583       -0.52459
H         -2.03012       -6.48018        1.88017
H         -1.72362       -6.17921        4.30274
H         -0.66063      -10.50207       -3.33922
H          1.18346      -12.62699       -2.08598
H          2.41242      -12.67726       -4.68773
H         -0.99591      -13.96340       -6.97292
H         -5.35540      -14.23829       -4.35041
H         -1.96593      -12.84210       -2.13521
H         -3.29982      -14.09758       -7.20343
H         -4.07952      -16.47542       -5.43105
H         -3.65197      -16.24791       -8.42055
H         -7.87771      -20.98510       -7.35325
H         -5.15992      -19.97878      -11.40300
