111

C          2.11947       -0.84268       -6.56846
S          3.43006        0.21776       -6.32320
C          2.40201        1.59777       -6.17977
C          1.06996        1.23198       -6.33849
C          0.90970       -0.18625       -6.55590
C         -0.43399       -0.80514       -6.81737
F         -0.54694       -0.98411       -8.16850
C         -1.58311        0.10030       -6.36223
F         -2.75558       -0.41245       -6.83602
C         -1.38020        1.50987       -6.90558
F         -2.46257        2.27977       -6.59027
C         -0.13572        2.13628       -6.27107
F         -0.41027        2.34742       -4.94658
C          3.01947        2.86365       -5.94803
C          2.45501        3.79814       -5.16778
C          3.01913        5.10791       -4.92360
C          2.47220        6.27834       -5.34104
N          1.23557        6.40109       -6.08311
O          0.33616        5.57439       -5.88637
O          1.14552        7.36561       -6.85557
C          3.30459        7.41167       -5.02444
C          4.39189        6.97256       -4.37484
C          4.28824        5.51248       -4.22170
C          5.17340        4.73891       -3.54607
C          5.11103        3.27884       -3.42435
C          6.18018        2.86238       -2.73107
C          6.93966        4.02131       -2.33347
N          8.10194        3.93369       -1.47964
O          8.80103        2.91844       -1.60170
O          8.30947        4.83710       -0.65877
C          6.39785        5.17104       -2.79167
C          6.89866        6.50907       -2.55505
C          8.11506        6.92246       -2.94157
C          8.60797        8.26067       -2.79121
N          8.79480        8.94190       -1.58525
C          8.63812        8.41045       -0.24594
C          9.93537        7.82325        0.28898
C          9.39018       10.20684       -1.79503
O          9.74480       11.05295       -1.00015
C          9.52193       10.26390       -3.25749
C          9.02133        9.03570       -3.79705
C          9.20893        9.06817       -5.25545
O          8.94996        8.17653       -6.03798
N          9.79941       10.33789       -5.46872
C         10.31513       10.71059       -6.77567
C          9.57357       11.85000       -7.45825
C         10.00017       11.00741       -4.25400
C         10.74336       12.22055       -4.09210
C         10.39898       13.40413       -4.61176
C         11.27125       14.51608       -4.49632
S         12.57952       14.69493       -5.58723
C         13.09526       16.22174       -4.95937
C         12.26244       16.56556       -3.89504
C         11.24704       15.56864       -3.61927
C         10.31069       15.63422       -2.58506
C         10.44863       16.78743       -1.78765
C          9.54198       16.91861       -0.67453
N          8.79635       16.99417        0.20463
C         11.44210       17.79721       -2.04654
C         11.52541       18.94196       -1.19045
N         11.61390       19.87148       -0.50031
C         12.37155       17.73725       -3.12834
C         14.27582       16.89237       -5.52001
S         15.42289       17.59908       -4.44680
C         16.35609       18.32007       -5.69203
C         15.86075       17.94932       -6.93322
C         14.72439       17.02903       -6.83689
C         14.11911       16.45517       -8.10495
F         13.90255       15.11264       -8.00781
C         14.99995       16.64789       -9.34652
F         16.08939       15.82442       -9.29029
C         15.49179       18.07121       -9.44522
F         14.41207       18.90322       -9.44422
C         16.41945       18.37792       -8.27226
F         16.69877       19.71297       -8.29971
C         17.44504       19.15340       -5.29069
C         18.55882       19.32588       -6.01300
H          2.30090       -1.89688       -6.73588
H         -0.52103       -1.79235       -6.35343
H         -1.66108        0.12182       -5.26915
H         -1.30384        1.49489       -7.99839
H          0.06116        3.10659       -6.73339
H          4.00335        3.03919       -6.38099
H          1.49338        3.62727       -4.68755
H          3.08880        8.43142       -5.30688
H          5.19950        7.61272       -4.06859
H          4.36939        2.60749       -3.81516
H          6.43451        1.84190       -2.48672
H          6.21490        7.19567       -2.05973
H          8.77847        6.24582       -3.48089
H          7.83428        7.67127       -0.21841
H          8.33604        9.23714        0.40872
H         10.31534        7.03451       -0.36756
H          9.77941        7.39957        1.28582
H         10.71120        8.59272        0.36730
H         10.23619        9.83691       -7.43341
H         11.38256       10.93654       -6.68194
H          8.49173       11.68931       -7.45544
H          9.91317       11.95689       -8.49284
H          9.76978       12.81103       -6.99071
H         11.63753       12.13822       -3.47437
H          9.45965       13.55105       -5.13457
H          9.55982       14.87330       -2.38239
H         13.08026       18.53447       -3.29413
H         13.14666       16.93413       -8.26829
H         14.43308       16.36359      -10.23838
H         16.03273       18.23882      -10.38259
H         17.36563       17.84583       -8.42868
H         17.37925       19.66013       -4.32883
H         18.74151       18.84817       -6.96618
H         19.34924       19.97543       -5.64822
