93

C          7.53113       -0.67900        4.98176
S          6.62587       -2.10652        5.21780
C          7.32220       -2.89326        3.83314
C          8.24127       -2.03628        3.23612
C          8.36389       -0.77322        3.89392
N          9.01708       -2.35779        2.07690
O          9.99735       -3.08646        2.24832
O          8.65737       -1.82815        1.01750
C          6.86635       -4.22076        3.54127
C          6.81507       -4.69831        2.28781
C          6.38677       -6.03042        1.91116
C          7.18358       -6.99070        1.37027
N          8.60098       -6.86424        1.09514
O          9.19448       -5.84120        1.44566
O          9.14024       -7.82088        0.51805
C          6.44680       -8.18926        1.05006
C          5.16894       -8.00587        1.39971
C          5.02972       -6.67329        1.99564
C          3.87028       -6.17459        2.48589
C          3.65002       -4.78307        2.88423
C          2.38762       -4.66242        3.31996
C          1.74767       -5.95118        3.21650
N          0.39057       -6.19341        3.66993
O         -0.28591       -7.04350        3.08777
O         -0.01575       -5.47476        4.59790
C          2.57293       -6.89596        2.71414
C          2.25064       -8.30658        2.58488
C          2.89716       -9.27222        3.25200
C          2.51014      -10.65336        3.24400
N          2.36423      -11.48258        2.12828
C          2.75571      -11.21153        0.76256
C          4.15899      -11.72311        0.45922
C          1.94747      -12.77977        2.50439
O          1.76567      -13.76082        1.81356
C          1.84932      -12.68384        3.97134
C          2.22373      -11.35135        4.34388
C          2.14121      -11.23645        5.80504
O          2.40224      -10.25958        6.47657
N          1.71871      -12.52550        6.18774
C          1.50409      -12.86980        7.57768
C          0.08883      -12.55606        8.03485
C          1.55655      -13.36566        5.08138
C          1.10411      -14.72458        5.17710
C          1.48025      -15.69973        4.33498
C          0.96386      -17.01212        4.46376
O          0.11502      -17.40085        5.46550
C         -0.24140      -18.72330        5.31593
C          0.43082      -19.18225        4.19087
C          1.18059      -18.10843        3.64957
N          0.35359      -20.49823        3.65244
O          0.57148      -21.43619        4.42673
O          0.09812      -20.58532        2.44480
C         -1.16102      -19.36152        6.20008
C         -1.76363      -18.65055        7.16562
C         -2.69762      -19.26192        8.03991
S         -4.35905      -19.30743        7.63756
C         -4.79041      -20.12502        9.09494
C         -3.67510      -20.31403        9.90120
C         -2.47513      -19.82541        9.27807
N         -3.69237      -20.92352       11.21684
O         -4.77374      -21.31330       11.67333
O         -2.60382      -20.99648       11.80170
C         -6.16105      -20.44964        9.29010
C         -6.64714      -21.62376        8.86924
H          7.41919        0.16066        5.65487
H          9.03500        0.01802        3.57925
H          6.51322       -4.83323        4.37078
H          7.14276       -4.10085        1.44055
H          6.85905       -9.05507        0.55350
H          4.38747       -8.70928        1.18638
H          4.33233       -3.95692        2.79108
H          1.90443       -3.75954        3.66186
H          1.39110       -8.55098        1.96483
H          3.70037       -9.01945        3.94067
H          2.67880      -10.14450        0.54496
H          2.04984      -11.72630        0.09986
H          4.90227      -11.26173        1.11667
H          4.43057      -11.50128       -0.57768
H          4.22492      -12.80799        0.59859
H          2.20609      -12.28728        8.18580
H          1.74049      -13.92669        7.73852
H         -0.13331      -11.48944        7.92421
H         -0.03645      -12.82225        9.08908
H         -0.65050      -13.11298        7.45087
H          0.40425      -14.94287        5.98004
H          2.17182      -15.51299        3.51873
H          1.80292      -18.12619        2.76410
H         -1.37760      -20.41855        6.06634
H         -1.56342      -17.59117        7.30937
H         -1.49088      -19.87954        9.73166
H         -6.79971      -19.74041        9.81009
H         -6.03324      -22.36089        8.36048
H         -7.68865      -21.87821        9.04036
