115

C          1.07437        4.43430       -6.62421
C          0.86440        3.21996       -7.18363
C          1.54810        2.79799       -8.35581
N          2.11198        2.46098       -9.31106
C         -0.10734        2.31043       -6.66451
N         -0.88325        1.56948       -6.22121
C          1.97489        5.52140       -7.12175
C          1.52498        6.72647       -6.56994
C          2.15145        7.94909       -6.70426
C          3.32257        7.98244       -7.44491
C          3.80564        6.79081       -8.06507
C          3.12134        5.56022       -7.89712
C          4.97524        6.87405       -8.82874
C          5.66767        8.08247       -8.94662
C          5.20319        9.23011       -8.30844
C          4.02975        9.18277       -7.56385
C          0.32877        6.50355       -5.77839
O         -0.50099        7.36547       -5.59584
C          0.31883        5.03035       -5.49383
C          0.01329        4.43640       -4.32377
C         -0.44258        5.07500       -3.12821
S         -1.45931        6.44228       -3.11646
C         -1.45553        6.60640       -1.41759
C         -0.82776        5.51885       -0.84690
C         -0.22691        4.66181       -1.82248
C         -0.76913        5.27063        0.55945
N         -0.76952        5.06210        1.70064
C         -2.12805        7.74861       -0.90932
C         -2.83565        7.72753        0.22800
C         -3.67800        8.80680        0.65386
N         -4.02028        9.06244        1.98886
C         -3.45901        8.38380        3.14938
C         -4.39965        8.31055        4.34487
C         -4.92684       10.14311        2.07947
O         -5.41775       10.69689        3.04135
C         -5.18318       10.46353        0.67007
C         -4.37287        9.62250       -0.14403
C         -4.66906        9.93155       -1.55619
O         -4.15913        9.41089       -2.52510
N         -5.65969       10.92538       -1.46588
C         -6.27106       11.61344       -2.59960
C         -5.85261       11.12381       -3.97590
C         -5.94841       11.19755       -0.13001
C         -6.96713       12.07432        0.32087
C         -8.25793       11.92802       -0.00942
C         -9.25722       12.78359        0.50829
S         -8.89434       14.04092        1.61360
C        -10.60318       12.79675        0.28455
C        -11.51489       12.01404       -0.49340
O        -11.19664       11.05521       -1.17356
N        -12.75560       12.59279       -0.27772
C        -14.00108       12.15957       -0.88756
C        -13.88515       10.97949       -1.84043
C        -12.70577       13.67827        0.59494
O        -13.62288       14.38665        0.98174
C        -11.31494       13.80268        0.95456
C        -10.52286       14.60302        1.73081
C        -10.80699       15.68641        2.59388
C         -9.89832       16.65626        2.76916
C        -10.07175       17.71464        3.71193
C        -10.00316       19.01286        3.40030
C        -10.04841       20.16947        4.30206
C        -10.67086       20.22962        5.50348
C        -10.73305       21.42274        6.26513
N        -10.79621       22.40416        6.88827
C        -11.36438       19.12639        6.08494
N        -11.92564       18.23079        6.56488
C         -9.42887       21.29966        3.55472
C         -9.29312       20.92668        2.21099
C         -9.69064       19.52835        2.02381
O         -9.71615       18.94354        0.96118
C         -8.77711       21.75859        1.22693
C         -8.33856       23.02933        1.60720
C         -8.41806       23.42114        2.97348
C         -8.95963       22.54618        3.93892
C         -7.94593       24.68729        3.34532
C         -7.41290       25.55871        2.39496
C         -7.34437       25.17665        1.05820
C         -7.80276       23.91907        0.66498
H          1.74284        8.82713       -6.21053
H          3.53021        4.66279       -8.35151
H          5.36268        5.99395       -9.33809
H          6.57681        8.12647       -9.53955
H          5.75261       10.16383       -8.39168
H          3.67848       10.08714       -7.06961
H          0.23433        3.37847       -4.19815
H          0.34045        3.77437       -1.56560
H         -2.13655        8.63231       -1.54808
H         -2.87978        6.83347        0.83523
H         -2.53417        8.90015        3.42796
H         -3.20125        7.35652        2.87545
H         -4.47173        9.28153        4.84475
H         -4.02903        7.59344        5.08310
H         -5.40614        8.00383        4.04090
H         -6.04506       12.68262       -2.50668
H         -7.35621       11.49390       -2.52904
H         -4.76652       11.14878       -4.10167
H         -6.28798       11.75499       -4.75564
H         -6.20255       10.09834       -4.13667
H         -6.62512       12.81291        1.04189
H         -8.57071       11.12749       -0.67768
H        -14.42336       13.02120       -1.41799
H        -14.70097       11.91799       -0.07864
H        -13.18094       11.19777       -2.65097
H        -14.84968       10.74342       -2.29658
H        -13.53682       10.08539       -1.31125
H        -11.75732       15.69868        3.11884
H         -8.96180       16.68766        2.21103
H        -10.18952       17.35673        4.72985
H         -8.70363       21.40687        0.20076
H         -8.97744       22.86880        4.97508
H         -7.98990       25.01005        4.38370
H         -7.05197       26.53751        2.70061
H         -6.93023       25.85889        0.31956
H         -7.73497       23.64025       -0.38484
