116

C          7.86604        9.39285       -2.36538
C          7.34722       10.47695       -2.98513
C          7.88389       11.78402       -2.79327
N          8.32165       12.84893       -2.62038
C          6.36738       10.33580       -4.01818
N          5.61903       10.21567       -4.89233
C          9.20560        9.35931       -1.74213
C          9.84505        8.18834       -2.18930
C         11.13678        7.85564       -1.82844
C         11.76260        8.65444       -0.85984
C         11.06384        9.76249       -0.28878
C          9.80264       10.14498       -0.77730
C         11.62734       10.43481        0.80239
C         12.87430       10.06114        1.30280
C         13.59283        9.03628        0.69349
C         13.04238        8.33694       -0.38224
C          8.84791        7.30772       -2.85140
O          9.03330        6.23787       -3.38814
C          7.52997        7.99078       -2.58750
C          6.50004        7.22968       -2.17307
C          5.31705        7.61527       -1.41103
C          5.22030        8.27543       -0.22814
N          6.32668        8.56422        0.64934
O          6.22638        9.57422        1.35910
O          7.28651        7.78400        0.65870
C          3.85558        8.63972        0.09537
C          3.05493        8.21087       -0.89272
C          3.89673        7.45641       -1.83216
C          3.37707        6.59527       -2.72897
C          3.92850        5.28034       -3.03466
C          3.00445        4.61999       -3.75397
C          1.88997        5.51171       -4.01715
N          0.79722        5.18406       -4.91339
O          0.86171        4.08579       -5.48213
O         -0.13163        5.98922       -5.05878
C          2.06769        6.70370       -3.41547
C          1.26998        7.89330       -3.56167
C          1.76781        9.06620       -3.99505
C          0.97697       10.25077       -4.00071
C          1.02848       11.38933       -4.78823
C         -0.00586       12.33629       -4.45348
N         -0.17512       13.51779       -5.10801
C          0.74967       13.68880       -6.09576
C          1.78564       12.80196       -6.46070
C          1.96962       11.57556       -5.80601
C         -0.80622       11.92013       -3.41684
S         -0.21067       10.45573       -2.77078
C         -1.91275       12.56546       -2.81813
C         -2.90187       11.87031       -2.23383
C         -4.00452       12.46184       -1.54084
C         -4.18629       13.78717       -1.39768
C         -5.39130       14.01089       -0.62329
C         -5.91495       12.67470       -0.30586
C         -5.08358       11.77385       -0.85360
C         -7.05906       12.31928        0.43746
N         -7.98714       12.00812        1.05433
C         -5.85605       15.22982       -0.30116
C         -7.04796       15.46617        0.49451
C         -7.19914       16.79408        0.63204
C         -6.11268       17.46870       -0.06389
C         -5.31067       16.55341       -0.62841
C         -4.16414       16.90495       -1.38146
N         -3.21669       17.20849       -1.98646
C         -8.22979       17.39046        1.42740
C         -9.53816       17.16078        1.24588
C        -10.50742       17.77228        2.12126
C        -11.84181       17.65873        2.08672
C        -12.83704       18.36324        2.92388
C        -12.67376       18.76810        4.20933
C        -13.71833       19.36926        4.96563
N        -14.55370       19.86934        5.58701
C        -11.45484       18.57487        4.93374
N        -10.46295       18.43049        5.51740
C        -14.10787       18.37421        2.14007
C        -13.95765       17.50086        1.05343
C        -12.60332       16.93665        1.01659
O        -12.22270       16.07430        0.25418
C        -14.94596       17.26183        0.11284
C        -16.15975       17.93685        0.24887
C        -16.34853       18.84292        1.33047
C        -15.30967       19.06033        2.26714
C        -17.57956       19.50898        1.43971
C        -18.59860       19.29084        0.50845
C        -18.40374       18.40749       -0.54921
C        -17.19027       17.73441       -0.67903
H         11.59857        6.94938       -2.20942
H          9.27836       10.99125       -0.34163
H         11.08157       11.23433        1.29990
H         13.28180       10.57041        2.17251
H         14.57427        8.76376        1.07353
H         13.61311        7.52242       -0.82357
H          6.59633        6.15398       -2.31704
H          3.54524        9.12822        1.00853
H          1.97550        8.24869       -0.87370
H          4.81019        4.83175       -2.60574
H          3.03698        3.58288       -4.05181
H          0.22457        7.78499       -3.27424
H          2.79955        9.14803       -4.32519
H          0.63879       14.62733       -6.63889
H          2.45315       13.08031       -7.27232
H          2.75546       10.88293       -6.07350
H         -1.90751       13.65076       -2.86110
H         -2.90821       10.78227       -2.24088
H         -3.53017       14.54120       -1.79074
H         -5.17532       10.69879       -0.79953
H         -7.69411       14.73201        0.94985
H         -6.00475       18.53853       -0.10713
H         -7.87365       18.03759        2.22555
H         -9.87500       16.51334        0.43781
H        -10.04643       18.42041        2.85968
H        -14.75841       16.57692       -0.70960
H        -15.47747       19.77891        3.06355
H        -17.76189       20.20447        2.25675
H        -19.54764       19.81186        0.60966
H        -19.19639       18.23995       -1.27432
H        -17.05668       17.04833       -1.51343
