96

C          4.34701        7.76789        4.83360
C          3.61176        7.79423        5.96982
C          3.57139        6.69624        6.87262
N          3.52028        5.77407        7.57595
C          2.92034        8.97388        6.37756
N          2.40117        9.94937        6.73524
C          5.41586        6.80176        4.51066
C          6.41572        7.49992        3.81129
C          7.61779        6.92185        3.45261
C          7.80513        5.56544        3.75338
C          6.75420        4.81471        4.36111
C          5.55852        5.44594        4.74361
C          6.93010        3.44197        4.57881
C          8.13317        2.81912        4.24801
C          9.17600        3.56073        3.69946
C          9.01148        4.92323        3.44573
C          5.92687        8.84808        3.43343
O          6.52522        9.69967        2.81559
C          4.49140        8.85731        3.86930
C          3.58686        9.51844        3.12959
C          2.19769        9.18527        3.10920
S          1.02816       10.39693        2.77745
C         -0.28549        9.27757        2.76974
C          0.16399        8.00945        3.09505
C          1.57691        7.95500        3.24702
C         -0.67793        6.85530        3.23330
N         -1.36354        5.92444        3.32411
C         -1.58627        9.76367        2.45233
C         -2.48144        8.98268        1.82952
C         -3.76556        9.48047        1.51774
S         -3.99171       10.21348       -0.00737
C         -5.68194       10.46303        0.23788
C         -6.04327       10.04441        1.50402
C         -4.94382        9.45697        2.22838
C         -5.04835        8.91533        3.51284
C         -6.35519        9.02695        4.03241
C         -6.60597        8.52257        5.35658
N         -6.81134        8.12074        6.42712
C         -7.45159        9.61653        3.31705
C         -7.34400       10.14727        2.01404
C         -6.46746       11.07492       -0.77457
C         -6.18430       10.95267       -2.08196
C         -6.95483       11.61252       -3.07064
S         -7.68011       13.12482       -2.75950
C         -8.40858       13.22105       -4.31011
C         -8.01171       12.14174       -5.08435
C         -7.17509       11.22763       -4.37596
C         -8.40725       11.93735       -6.44259
N         -8.71593       11.76866       -7.54677
C         -9.23066       14.34087       -4.63241
C        -10.00826       14.92638       -3.70731
C        -10.84923       16.06215       -3.99201
C        -11.98052       16.37616       -3.34163
C        -12.94378       17.46341       -3.61973
C        -12.67766       18.66400       -4.19123
C        -13.65977       19.68616       -4.34397
N        -14.45219       20.51574       -4.47368
C        -11.37567       19.03408       -4.64894
N        -10.32091       19.33300       -5.02758
C        -14.23557       17.04992       -2.99251
C        -14.00494       15.92516       -2.19094
C        -12.61268       15.48317       -2.30530
O        -12.13107       14.55933       -1.68380
C        -14.98535       15.29553       -1.43885
C        -16.28406       15.80697       -1.49229
C        -16.56291       16.92806       -2.32201
C        -15.53359       17.53450       -3.07456
C        -17.87494       17.41971       -2.37705
C        -18.89200       16.82870       -1.62585
C        -18.61431       15.73509       -0.81084
C        -17.31811       15.22392       -0.74564
H          8.37224        7.50521        2.93267
H          4.76520        4.86317        5.20372
H          6.13257        2.84193        5.01358
H          8.25838        1.75416        4.42761
H         10.11974        3.07591        3.46262
H          9.83852        5.47948        3.00918
H          3.93356       10.24542        2.39427
H          2.10445        7.02572        3.42521
H         -1.83240       10.79841        2.68963
H         -2.27546        7.96847        1.50458
H         -4.23213        8.46166        4.06126
H         -8.42991        9.65781        3.80165
H         -8.19473       10.57594        1.49850
H         -7.33036       11.64449       -0.43960
H         -5.35914       10.33973       -2.43348
H         -6.76834       10.31725       -4.80191
H         -9.24295       14.68639       -5.66251
H        -10.03162       14.55402       -2.68417
H        -10.49515       16.65661       -4.82863
H        -14.73612       14.42438       -0.83868
H        -15.79385       18.37072       -3.71474
H        -18.11854       18.27528       -3.00421
H        -19.90289       17.22563       -1.67681
H        -19.40800       15.27835       -0.22488
H        -17.12346       14.36665       -0.10408
