123

C          2.63938        5.83018        2.01924
N          1.75274        6.13419        3.04558
C          2.04404        5.92837        4.45442
C          2.24198        4.46212        4.81785
C          0.55677        6.70189        2.54839
O         -0.43458        7.09029        3.13468
C          0.78237        6.70923        1.07661
C          2.08444        6.15211        0.85332
C          2.33118        6.11485       -0.58523
O          3.31794        5.66655       -1.12352
N          1.15134        6.68616       -1.12738
C          0.99518        6.68508       -2.57032
C          0.60469        7.99095       -3.24757
C          0.23607        7.02004       -0.10651
C         -1.05758        7.65012       -0.27087
C         -1.86644        7.55292       -1.33539
C         -3.16162        8.17354       -1.48675
C         -3.45477        9.37281       -2.04557
N         -2.48533       10.27113       -2.61969
O         -2.84670       10.91259       -3.61550
O         -1.38464       10.38426       -2.06624
C         -4.86994        9.66537       -2.00541
C         -5.48659        8.67032       -1.35102
C         -4.46733        7.69541       -0.94857
C         -4.66340        6.58870       -0.20053
C         -3.75726        5.44332       -0.18078
C         -4.27771        4.52344        0.63688
C         -5.49747        5.05648        1.21634
N         -6.18501        4.35908        2.28711
O         -5.73852        3.24456        2.59786
O         -7.16308        4.88819        2.83159
C         -5.78304        6.29570        0.74710
C         -6.82693        7.19605        1.21684
C         -6.59564        8.48908        1.49412
C         -7.54608        9.30614        2.14810
O         -7.23296        9.76232        3.39817
C         -8.27458       10.45934        3.92299
C         -9.24390       10.55639        2.94950
C         -8.78874        9.83253        1.80126
C         -9.50824        9.68867        0.54667
O         -9.21653        8.88801       -0.33300
O        -10.56539       10.55171        0.49384
C        -11.47751       10.40285       -0.59463
C         -8.27131       10.92576        5.25278
C         -7.19888       11.58322        5.71664
C         -7.03125       12.01522        7.08330
C         -7.83536       12.83258        7.81107
N         -9.01333       13.51224        7.32377
O         -9.82018       12.89713        6.62289
O         -9.17063       14.67943        7.71107
C         -7.36540       12.99819        9.16213
C         -6.25619       12.26530        9.31676
C         -5.96931       11.58112        8.05553
C         -4.91668       10.74894        7.87724
C         -4.31228       10.41396        6.58877
C         -3.19211        9.71496        6.82944
C         -3.07804        9.49527        8.25696
N         -2.05834        8.64092        8.82798
O         -1.49213        7.85413        8.05612
O         -1.78006        8.75745       10.03003
C         -4.10599       10.06584        8.94358
C         -4.41302        9.88598       10.35456
C         -5.64174        9.59594       10.81597
C         -5.98126        9.41398       12.19906
N         -5.90553        8.17575       12.83391
C         -5.45337        6.93721       12.23086
C         -6.57227        6.21409       11.49968
C         -6.40761        8.23337       14.14914
O         -6.54505        7.35350       14.97069
C         -6.77605        9.65349       14.29557
C         -6.46938       10.31693       13.05872
C         -6.88610       11.71791       13.20944
O         -6.84572       12.58899       12.36292
N         -7.39671       11.78135       14.53828
C         -8.07500       13.00932       14.90110
C         -8.57732       13.25585       16.30736
C         -7.33186       10.52162       15.14804
C         -7.82574       10.12829       16.43822
C         -7.46003       10.63991       17.61913
H          3.60868        5.39160        2.20376
H          1.22725        6.34340        5.05371
H          2.95174        6.49439        4.69492
H          1.34936        3.87382        4.58371
H          2.44969        4.36042        5.88830
H          3.08496        4.02318        4.27356
H          0.30069        5.87824       -2.83226
H          1.95705        6.38937       -3.00767
H         -0.46063        8.01564       -3.49049
H          1.10680        8.07166       -4.21739
H          0.85545        8.86891       -2.64914
H         -1.39449        8.23226        0.59299
H         -1.61580        6.89487       -2.15873
H         -5.33873       10.51992       -2.47125
H         -6.55524        8.57072       -1.22685
H         -2.87719        5.28780       -0.78190
H         -3.86883        3.54455        0.83817
H         -7.80011        6.76420        1.44359
H         -5.60806        8.92524        1.37759
H        -10.18485       11.08344        3.05149
H        -12.27329        9.72080       -0.28337
H        -10.99974       10.04338       -1.50962
H        -11.92505       11.38072       -0.79870
H         -9.14030       10.70366        5.86354
H         -6.36582       11.77922        5.04730
H         -7.81503       13.63983        9.90566
H         -5.64035       12.27163       10.20217
H         -4.60624       10.75044        5.61108
H         -2.48074        9.36674        6.09430
H         -3.58778        9.96382       11.06091
H         -6.47889        9.47772       10.12919
H         -5.07179        6.28814       13.02716
H         -4.61722        7.14024       11.55375
H         -7.40589        5.99545       12.17492
H         -6.20649        5.26839       11.08788
H         -6.96214        6.81659       10.67291
H         -8.92112       13.11469       14.21011
H         -7.38809       13.82868       14.64787
H         -9.30119       12.50125       16.62323
H         -9.08900       14.22470       16.34582
H         -7.75349       13.31178       17.02231
H         -8.46640        9.24531       16.44502
H         -6.75956       11.46213       17.70717
H         -7.85595       10.22233       18.54054
