100

C         -1.12360        0.62432        3.72910
C         -0.99361        1.51930        2.72068
C         -0.44716        2.81289        2.91445
N          0.01347        3.86901        3.08236
C         -1.42402        1.25360        1.38698
N         -1.74148        1.03074        0.29049
C         -0.79019        0.83734        5.17363
C         -1.41580       -0.17982        5.91606
C         -1.26648       -0.33759        7.28517
C         -0.47578        0.58871        7.96239
C          0.13440        1.64540        7.25775
C         -0.00439        1.75965        5.85859
Cl         1.07108        2.85576        8.06579
Cl        -0.27031        0.37125        9.66353
C         -2.18663       -1.06858        5.03290
O         -3.03016       -1.86402        5.38145
C         -1.75273       -0.71586        3.64813
C         -1.74584       -1.59427        2.63304
C         -2.15251       -3.01185        2.61902
C         -1.39412       -4.13968        3.03554
O         -0.26176       -4.01264        3.81956
C          0.70710       -3.00728        3.54010
C         -1.83902       -5.50570        2.79893
O         -1.08513       -6.60673        3.17057
C          0.32003       -6.58333        2.92234
C         -3.10971       -5.84354        2.22538
C         -3.87684       -4.72577        1.77908
C         -3.38864       -3.30307        1.97257
N         -4.23364       -2.38710        1.46298
S         -5.52267       -3.21148        0.83952
N         -5.05973       -4.76978        1.13660
C         -3.70141       -7.20378        2.06041
C         -3.53043       -7.91214        0.92471
C         -4.19609       -9.18217        0.68679
C         -5.18641       -9.72389        1.62479
C         -5.50529       -9.15288        2.78869
S         -4.71841       -7.71839        3.40066
C         -5.71424      -10.89699        1.02760
C         -5.11243      -11.10609       -0.19292
C         -5.52515      -12.31170       -0.79961
C         -6.49699      -12.93696       -0.02347
S         -6.84508      -12.06142        1.43373
C         -4.19877       -9.99645       -0.41961
C         -3.49654       -9.65716       -1.64316
C         -3.84106      -10.01190       -2.89050
C         -3.19623       -9.45444       -4.09587
C         -2.91286       -8.07136       -4.37006
O         -3.26166       -7.18123       -3.36326
C         -3.79696       -5.89063       -3.67862
C         -2.20322       -7.64083       -5.54291
O         -1.95514       -6.29914       -5.58526
C         -0.88334       -5.69696       -6.27443
C         -1.83350       -8.54086       -6.56369
C         -2.17059       -9.91424       -6.38017
C         -2.87055      -10.37806       -5.13474
N         -3.11513      -11.70346       -5.14914
S         -2.53746      -12.29438       -6.58230
N         -1.91430      -10.91367       -7.24845
C         -1.18001       -8.19976       -7.82287
C         -1.83062       -7.95471       -8.96548
C         -1.28256       -7.72135      -10.30107
C         -0.08911       -7.12661      -10.57970
C          0.31800       -6.82931      -11.90372
N          0.64095       -6.58754      -12.99635
C          0.82665       -6.68107       -9.57518
N          1.55815       -6.31991       -8.74493
C         -2.34467       -8.09048      -11.27554
C         -3.54004       -8.27891      -10.56429
C         -3.31298       -8.10946       -9.12207
O         -4.17846       -8.12105       -8.27376
C         -4.73910       -8.65064      -11.15498
C         -4.74414       -8.85331      -12.53318
C         -3.55777       -8.68736      -13.27561
C         -2.35383       -8.31270      -12.64638
Cl        -3.50887       -8.94247      -14.98588
Cl        -6.23377       -9.32933      -13.26621
H         -1.73968       -1.17018        7.79828
H          0.51991        2.56856        5.35845
H         -1.31727       -1.32143        1.67143
H          1.66331       -3.48855        3.31550
H          0.84150       -2.39960        4.44068
H          0.49352       -2.36602        2.68621
H          0.74900       -5.61771        2.65434
H          0.55325       -7.25980        2.09464
H          0.82503       -6.95400        3.82001
H         -2.92690       -7.50518        0.12097
H         -6.29038       -9.58175        3.40660
H         -5.15934      -12.72735       -1.73004
H         -7.01350      -13.86582       -0.22805
H         -2.67645       -8.95383       -1.52424
H         -4.63623      -10.72961       -3.07285
H         -3.57180       -5.23358       -2.83185
H         -4.88043       -5.94621       -3.80379
H         -3.40462       -5.36427       -4.54629
H          0.01871       -6.30906       -6.27530
H         -0.65250       -4.77117       -5.73609
H         -1.20052       -5.40923       -7.28053
H         -0.09807       -8.25403       -7.75679
H         -5.63124       -8.79587      -10.55174
H         -1.45929       -8.22883      -13.25544
