87

C         -2.33487       -2.18290       -3.55687
C         -2.29733       -1.30902       -4.63629
C         -2.04304        0.00622       -4.19320
C         -1.89783        0.06942       -2.82328
S         -2.05905       -1.38960       -2.04096
C         -1.63524        1.40725       -2.45133
C         -1.61505        2.18946       -3.58490
C         -1.87197        1.34345       -4.75888
C         -1.93298        1.70130       -6.05881
C         -1.72900        3.05538       -6.46046
N         -1.55891        4.14689       -6.77344
C         -2.19537        0.76548       -7.09490
N         -2.40870       -0.00174       -7.94653
C         -1.35448        3.54561       -3.27163
C         -1.16728        3.72972       -1.89761
S         -1.35021        2.22586       -1.03398
C         -0.88193        4.96650       -1.18613
C         -0.18637        5.12268        0.01807
C         -0.19679        6.47016        0.45182
C         -0.86848        7.28423       -0.43262
S         -1.45664        6.50243       -1.77855
C         -0.95148        8.58678        0.11697
C         -0.36336        8.58847        1.36137
C          0.24404        7.27268        1.59802
C          1.09751        6.91511        2.57870
C          1.51413        7.83830        3.57386
N          1.84424        8.60015        4.38910
C          1.67692        5.61433        2.62826
N          2.14263        4.55491        2.66099
C         -0.60113        9.80954        2.04866
C         -1.25419       10.74762        1.23547
S         -1.60209       10.04463       -0.33504
C         -1.66841       12.11727        1.57352
S         -3.05957       12.79396        0.78685
C         -3.23886       14.10276        1.89039
C         -2.26324       13.98584        2.87822
C         -1.17977       13.04340        2.49213
C          0.07140       13.03414        3.17374
C          1.39344       12.52780        2.72101
O          2.38443       12.62210        3.43070
O          1.49353       12.08903        1.45513
C          0.07848       13.83449        4.35533
C         -1.00944       14.62693        4.79947
C         -2.19380       14.75903        4.06306
O         -3.21906       15.50909        4.56808
C         -4.26691       15.11973        1.62289
C         -5.46877       14.99253        0.90303
C         -6.17979       16.23637        0.85824
C         -5.51915       17.16840        1.59867
S         -3.95358       16.78349        2.04995
C         -6.17967       18.34934        1.80907
C         -7.30468       18.56893        1.09434
S         -7.58731       17.07766        0.26798
C         -7.67337       19.91167        1.37653
C         -6.76109       20.38677        2.34230
N         -5.93254       19.32987        2.71839
C         -5.43148       19.01469        4.03751
C         -6.78325       21.83170        2.85508
C         -7.99296       22.62319        2.77282
C         -7.86082       23.90216        3.25956
S         -9.12785       25.12100        3.31974
C         -9.11197       25.55072        5.07926
S         -6.27776       24.19994        3.76977
C         -5.73631       22.58348        3.39388
C         -4.34414       22.40857        3.65236
C         -3.52098       21.70567        2.87059
H         -2.50860       -3.25114       -3.57680
H         -2.44716       -1.64158       -5.65579
H         -1.28696        4.36085       -3.98145
H          0.25657        4.28640        0.54726
H         -0.33468       10.00448        3.08163
H          0.67400       12.01871        0.94318
H          0.98662       13.86309        4.96673
H         -0.89288       15.16745        5.73909
H         -2.85534       16.12945        5.22196
H         -5.82367       14.07485        0.45171
H         -8.46892       20.47430        0.90856
H         -5.58012       19.84195        4.72776
H         -4.37096       18.76880        3.96840
H         -5.98454       18.14020        4.40960
H         -8.93820       22.25421        2.39624
H         -9.89155       26.29107        5.28043
H         -8.15259       25.98220        5.37841
H         -9.31406       24.66306        5.68484
H         -3.90075       22.99074        4.46194
H         -3.85924       21.16263        1.99725
H         -2.45433       21.71217        3.07847
