122

C         -3.98602        0.33351        6.44159
S         -3.88476       -1.33306        6.11001
C         -3.13736       -1.09464        4.55405
C         -2.99997        0.26622        4.31790
C         -3.47775        1.07125        5.40820
C         -3.44337        2.46019        5.44962
C         -2.88061        3.02192        4.27545
C         -2.77767        4.52675        4.20829
C         -2.40579        2.22605        3.16470
O         -1.85773        2.95828        2.12929
C         -1.91254        2.36410        0.83636
C         -2.44192        0.81061        3.14843
C         -2.77080       -2.19884        3.72190
C         -2.93324       -3.48171        4.07622
C         -2.57502       -4.54945        3.21234
C         -2.03047       -4.54457        1.92545
C         -1.84100       -5.85117        1.44624
C         -2.23281       -6.78041        2.37558
S         -2.83452       -6.17274        3.78880
C         -1.99703       -8.06122        1.86222
C         -1.45730       -7.95574        0.60171
C         -1.33442       -6.53402        0.25949
C         -0.87833       -5.96312       -0.86578
C         -0.82859       -4.55223       -1.05251
N         -0.78904       -3.40333       -1.18380
C         -0.40492       -6.76716       -1.95166
N         -0.02430       -7.42664       -2.82826
C         -1.19505       -9.23536        0.06029
C         -1.55772      -10.24318        0.96313
S         -2.19889       -9.59244        2.43895
C         -1.43614      -11.66991        0.79996
C         -0.47460      -12.34640        0.09506
C         -0.64879      -13.78737        0.05499
C          0.11828      -14.81286       -0.57065
C          1.37929      -14.48027       -1.32025
C          2.58364      -15.17323       -1.42249
C          3.56884      -14.52140       -2.22536
C          3.13883      -13.29705       -2.67659
S          1.47504      -13.09457       -2.35460
C          3.88792      -12.24590       -3.42676
Cl         5.10422      -15.21480       -2.52970
C         -0.32317      -16.15658       -0.49606
C         -1.51512      -16.50855        0.16468
C         -2.25092      -15.49943        0.85488
C         -1.79896      -14.15614        0.78128
S         -2.48987      -12.76586        1.53866
C         -3.50136      -15.84894        1.64171
C         -4.66769      -15.12475        1.89498
C         -5.62950      -15.80513        2.71093
C         -5.21525      -17.06809        3.05782
S         -3.62441      -17.34850        2.50797
C         -5.92829      -18.12972        3.83374
Cl        -7.11575      -15.08251        3.16594
C         -1.78854      -17.90956       -0.04824
C         -0.81134      -18.60506       -0.71730
S          0.43211      -17.56840       -1.17705
C         -0.81706      -20.00747       -1.03991
C          0.26575      -20.88172       -1.17013
C         -0.17744      -22.19623       -1.43369
C         -1.54905      -22.24438       -1.51183
S         -2.33510      -20.80737       -1.30891
C         -1.95197      -23.56886       -1.71995
C         -0.84080      -24.37266       -1.77219
C          0.35794      -23.54761       -1.61998
C          1.64350      -23.94228       -1.65363
C          2.71063      -23.01193       -1.49536
N          3.57212      -22.25439       -1.36303
C          2.00329      -25.30445       -1.85833
N          2.28964      -26.41606       -2.02674
C         -1.20369      -25.72511       -1.91595
C         -2.59089      -25.87724       -1.99382
S         -3.40222      -24.33717       -1.87753
C         -3.36073      -27.09508       -2.14046
S         -4.92113      -27.20010       -1.42856
C         -5.24521      -28.79571       -1.99324
C         -4.13051      -29.25010       -2.68199
C         -3.05541      -28.28692       -2.76132
C         -1.84292      -28.54504       -3.41074
C         -1.71951      -29.86249       -3.91617
C         -0.38232      -30.20285       -4.53595
C         -2.79109      -30.82232       -3.83296
O         -2.53142      -32.06712       -4.37732
C         -3.34128      -33.12714       -3.86370
C         -4.04842      -30.53180       -3.24126
C         -6.49566      -29.43768       -1.70459
C         -7.47641      -28.87610       -0.98207
H         -4.41257        0.67222        7.37458
H         -3.79926        3.05425        6.28034
H         -3.27173        4.99568        5.06628
H         -3.26859        4.90173        3.30510
H         -1.72733        4.83268        4.21615
H         -1.55298        3.10432        0.11464
H         -2.94160        2.10392        0.56645
H         -1.25209        1.49488        0.76289
H         -2.05826        0.21834        2.33251
H         -2.34163       -1.95873        2.75526
H         -3.35269       -3.75409        5.04071
H         -1.79090       -3.63515        1.39143
H         -0.77799       -9.44129       -0.91886
H          0.32653      -11.80512       -0.38650
H          2.77947      -16.12438       -0.94514
H          4.95400      -12.25842       -3.17296
H          3.51903      -11.24150       -3.18877
H          3.79026      -12.40399       -4.50458
H         -4.85844      -14.12589        1.52590
H         -6.63945      -17.70326        4.54880
H         -5.22581      -18.74493        4.40626
H         -6.48439      -18.79187        3.15987
H         -2.68513      -18.40930        0.28877
H          1.29415      -20.56794       -1.03806
H         -0.51247      -26.55560       -1.94120
H         -1.03242      -27.83997       -3.51961
H          0.35485      -29.41677       -4.31954
H         -0.46305      -30.28069       -5.62319
H          0.02297      -31.12622       -4.11341
H         -2.93020      -34.07924       -4.20847
H         -4.36851      -33.06066       -4.24084
H         -3.32950      -33.13519       -2.76705
H         -4.86436      -31.23558       -3.20431
H         -6.66385      -30.44011       -2.08828
H         -7.40983      -27.88005       -0.55584
H         -8.39996      -29.41044       -0.78852
