93

C          0.71238        6.52124        2.00896
C          1.40304        6.51110        3.17547
C          2.77981        6.85932        3.26167
N          3.90486        7.13674        3.33763
C          0.79731        6.19730        4.42748
N          0.30549        5.93082        5.44395
C          1.22833        6.95220        0.67146
C          0.13876        7.16238       -0.17621
C          0.24268        7.54435       -1.50898
C          1.53741        7.73494       -2.03586
C          2.64098        7.53191       -1.19644
C          2.50878        7.13106        0.15945
S          4.12127        7.82679       -2.03520
C          3.31458        8.20312       -3.48797
C          1.94956        8.10904       -3.35863
C         -1.12191        6.86944        0.51173
O         -2.22340        7.10926        0.06448
C         -0.73392        6.25200        1.82776
C         -1.55802        5.46806        2.54416
C         -2.89277        5.19665        2.14250
C         -3.36782        4.14468        1.35638
C         -4.75733        4.25661        1.14902
C         -5.27553        5.33426        1.82822
S         -4.17374        6.24432        2.66944
C         -6.66416        5.37690        1.61775
C         -7.03247        4.33746        0.79511
C         -5.83768        3.57026        0.43720
C         -5.74521        2.50168       -0.37723
C         -4.49710        1.87508       -0.64562
N         -3.47709        1.36598       -0.86265
C         -6.88559        1.95467       -1.02556
N         -7.81515        1.50965       -1.55943
C         -8.42422        4.34248        0.55031
C         -9.04197        5.41338        1.20101
S         -7.89853        6.34988        2.12583
C        -10.42504        5.85442        1.20777
N        -10.66496        7.17980        1.37463
N        -11.95837        7.75125        1.38929
C        -13.09452        7.03007        1.23886
C        -12.94502        5.63435        1.06848
C        -11.55657        5.02349        1.04730
N        -11.58305        3.68806        0.87388
S        -13.17355        3.24449        0.74181
N        -13.91581        4.71650        0.89709
C        -14.35958        7.73818        1.20490
C        -15.63408        7.33635        1.60681
C        -16.58904        8.33644        1.32941
C        -16.00802        9.43725        0.74580
S        -14.37023        9.34860        0.54082
C        -17.00513       10.37742        0.43790
C        -18.22859        9.86662        0.80431
C        -18.02921        8.56379        1.44966
C        -18.93746        7.78096        2.06325
C        -18.57612        6.54621        2.67207
N        -18.27932        5.53845        3.16740
C        -20.30223        8.16915        2.16455
N        -21.41317        8.48599        2.24407
C        -19.27082       10.75857        0.46191
C        -18.76002       11.94353       -0.07154
S        -17.02924       11.90409       -0.20694
C        -19.44301       13.11039       -0.48401
C        -19.59873       14.23384        0.23524
C        -19.24800       14.79534        1.56038
C        -19.01027       14.16344        2.74002
C        -18.72062       14.85215        3.95206
N        -18.47146       15.39463        4.95484
C        -19.10264       12.76055        2.94706
N        -19.18472       11.64569        3.26280
C        -19.43129       16.29054        1.44072
C        -20.03349       16.56987        0.21396
C        -20.19455       15.35082       -0.57327
O        -20.69109       15.29551       -1.68042
C        -20.42361       17.83694       -0.21145
C        -20.21515       18.91633        0.67082
C        -19.59043       18.66325        1.89748
C        -19.16996       17.36393        2.28883
S        -19.43060       20.11034        2.82532
C        -20.19629       21.05266        1.63035
C        -20.54941       20.30493        0.53230
H         -0.64582        7.67213       -2.12147
H          3.41053        6.96569        0.73702
H          3.87764        8.47349       -4.37105
H          1.26532        8.30319       -4.17626
H         -1.23325        4.94452        3.43594
H         -2.71622        3.37741        0.95714
H         -8.96820        3.64306       -0.07441
H        -15.82882        6.36610        2.04897
H        -20.32515       10.62658        0.68132
H        -19.82670       13.08810       -1.50655
H        -20.88928       17.97812       -1.18321
H        -18.67762       17.26617        3.24767
H        -20.34834       22.11205        1.78641
H        -21.04146       20.72876       -0.33514
