93

C          1.93280        0.25731       -0.33979
C          1.06096        0.63577       -1.29783
C          0.53003        2.00231       -1.18036
C         -0.23321        2.73161       -2.03403
C         -0.62915        2.27030       -3.32173
N         -0.93880        1.92702       -4.38476
C         -0.66460        4.05558       -1.71633
N         -1.02345        5.12930       -1.46444
S          1.11212        2.67961        0.34002
C          2.14621        1.30740        0.67744
O          2.90762        1.24297        1.62478
C          0.63106       -0.26932       -2.30579
N          0.24067       -1.01362       -3.10317
C          2.60147       -0.99605       -0.27095
C          2.25068       -2.16543        0.41358
C          3.22150       -3.18140        0.23819
C          4.25260       -2.74745       -0.56207
S          4.12014       -1.18469       -1.10528
C          5.17143       -3.80069       -0.73647
C          4.72861       -4.91018       -0.05489
C          3.47435       -4.57694        0.62872
C          2.73172       -5.36423        1.43219
C          3.09472       -6.71236        1.71276
N          3.36839       -7.81578        1.93625
C          1.53765       -4.88522        2.03815
N          0.56342       -4.47677        2.51923
C          5.59814       -6.01159       -0.24411
C          6.66274       -5.67787       -1.08806
S          6.59354       -3.99997       -1.55880
C          7.73338       -6.53457       -1.55980
C          8.31861       -7.61910       -0.94074
C          9.37283       -8.21615       -1.73436
N         10.09657       -9.29085       -1.31607
C          9.72430       -9.73249       -0.08504
C         10.48193      -10.90285        0.41839
O         11.37830      -11.44224       -0.21787
C         10.12724      -11.43166        1.74715
C          9.15923      -10.88239        2.48208
C          8.38887       -9.71317        2.01355
O          7.51993       -9.24063        2.73488
C          8.71099       -9.15531        0.68003
N          7.95998       -8.07365        0.29525
C          9.57094       -7.58570       -2.94897
S          8.44659       -6.29254       -3.11014
C         10.52566       -7.87032       -4.00954
C         10.68809       -7.19062       -5.22416
C         11.70383       -7.77302       -6.01107
C         12.29040       -8.83925       -5.36985
S         11.66085       -9.18788       -3.88376
C         13.28708       -9.38756       -6.19947
C         13.30868       -8.68368       -7.37904
C         12.33711       -7.59318       -7.31451
C         12.12851       -6.62332       -8.22694
C         12.88972       -6.57442       -9.42680
N         13.54414       -6.57414      -10.38645
C         11.17550       -5.59080       -8.02268
N         10.39768       -4.74575       -7.85746
C         14.21296       -9.24725       -8.29761
C         14.96504      -10.26968       -7.71483
S         14.38463      -10.62816       -6.10586
C         16.01176      -11.07203       -8.25248
C         16.86977      -10.68291       -9.20668
C         17.55286      -11.77879       -9.96858
O         17.76301      -12.91964       -9.61615
C         17.83205      -11.20625      -11.29697
C         18.30179      -11.89974      -12.39988
C         18.44751      -11.19913      -13.60235
C         18.08279       -9.81963      -13.66798
C         18.23728       -9.12624      -14.87623
C         18.74851       -9.77659      -15.99408
C         19.09884      -11.11777      -15.93095
C         18.94783      -11.83420      -14.74780
F         19.59232      -11.73628      -17.01208
F         18.90522       -9.09110      -17.13447
C         17.58637       -9.15876      -12.52818
C         17.49103       -9.84438      -11.32684
C         17.10623       -9.43601       -9.94835
C         17.24769       -8.18879       -9.43481
C         17.25234       -7.94817       -8.02712
N         17.29645       -7.73033       -6.89043
C         17.50394       -7.04098      -10.24276
N         17.69269       -6.11240      -10.91053
H          1.34094       -2.24741        0.99744
H          5.47121       -7.00618        0.17003
H         10.69654      -12.28823        2.09063
H          8.89575      -11.26901        3.46063
H         10.08931       -6.33342       -5.50781
H         14.34054       -8.93804       -9.32572
H         16.03753      -12.11271       -7.92235
H         18.54290      -12.95643      -12.31482
H         17.97793       -8.07378      -14.96203
H         19.23333      -12.88270      -14.73486
H         17.28820       -8.11796      -12.61576
