113

C         -5.11012        0.39904       -8.06489
C         -6.18327        1.28784       -8.06725
F         -6.41028        2.03871       -9.15288
C         -7.01574        1.40149       -6.96046
F         -8.05682        2.24278       -6.97779
C         -6.77478        0.64528       -5.82229
C         -5.68802       -0.23542       -5.79282
C         -4.84443       -0.38903       -6.93524
C         -3.77245       -1.31873       -6.91537
C         -3.52191       -2.05846       -5.76691
C         -4.35569       -1.83944       -4.66483
C         -5.42672       -0.96476       -4.64138
C         -3.96297       -2.68040       -3.54366
O         -4.25948       -2.43053       -2.39598
C         -3.05029       -3.71850       -4.11985
C         -2.54321       -3.12910       -5.39176
C         -1.36466       -3.40213       -6.00322
C         -0.44525       -4.36912       -5.49220
N          0.29290       -5.15806       -5.08038
C         -0.92534       -2.69843       -7.16098
N         -0.57950       -2.11641       -8.10423
C         -2.98091       -5.00038       -3.71582
C         -3.76622       -5.57945       -2.66908
C         -4.20080       -5.09276       -1.43655
C         -5.07921       -5.99019       -0.82835
C         -5.25153       -7.17025       -1.50628
S         -4.34212       -7.22251       -2.91159
C         -6.13899       -8.10546       -0.89359
C         -6.69578       -7.71923        0.30474
Si        -6.14912       -5.98150        0.69276
C         -5.32046       -5.75810        2.31809
C         -7.53246       -4.73590        0.54269
C         -7.48444       -8.69991        0.91366
C         -7.60181       -9.82083        0.08770
S         -6.68622       -9.60354       -1.38448
C         -8.41964      -11.04201        0.26505
C         -8.06269      -12.32919       -0.20748
C         -8.95853      -13.44904       -0.12282
N         -8.59638      -14.61903       -0.70269
C         -7.37974      -14.75085       -1.28556
C         -6.50252      -13.70530       -1.30776
N         -6.83970      -12.50921       -0.76635
C         -5.20977      -13.78368       -1.91687
N         -4.16827      -13.87646       -2.42472
C         -7.09256      -16.03055       -1.86008
N         -6.83930      -17.05755       -2.33867
C        -10.21096      -13.37430        0.53949
C        -10.59154      -12.10435        1.05827
C         -9.68718      -10.91526        0.90584
N        -10.22925       -9.79534        1.41988
S        -11.68959      -10.19223        2.07145
N        -11.72695      -11.80115        1.71474
C        -11.11629      -14.52664        0.75407
C        -12.51375      -14.58495        0.79411
C        -12.94151      -15.89276        1.05709
C        -11.92412      -16.80128        1.21888
S        -10.42063      -16.09050        1.10618
C        -12.31329      -18.14462        1.49559
C        -13.66758      -18.37996        1.56102
Si       -14.56893      -16.77371        1.25558
C        -15.61577      -16.24393        2.68870
C        -15.59865      -16.74722       -0.28302
C        -13.99885      -19.70104        1.87353
C        -12.84477      -20.45208        2.10727
S        -11.40671      -19.51954        1.79585
C        -12.67207      -21.80881        2.49643
C        -13.51308      -22.49041        3.28325
C        -13.41315      -23.98418        3.23974
O        -12.46666      -24.66689        2.91210
C        -14.76043      -24.46648        3.58640
C        -15.19936      -25.77449        3.51148
C        -16.54579      -26.03107        3.78487
C        -17.42834      -24.94925        4.09260
C        -18.78150      -25.22119        4.34089
C        -19.24864      -26.53126        4.30394
C        -18.38732      -27.58064        4.01667
C        -17.04304      -27.33989        3.75190
F        -18.84313      -28.83985        3.99351
F        -20.54274      -26.77124        4.55391
C        -16.94130      -23.62894        4.15341
C        -15.59270      -23.38911        3.93649
C        -14.75182      -22.16383        3.99655
C        -14.97892      -21.09734        4.79989
C        -13.97291      -20.12465        5.08650
N        -13.17764      -19.32528        5.37005
C        -16.20017      -20.90954        5.50409
N        -17.20979      -20.75616        6.05557
H         -4.48576        0.34138       -8.95266
H         -7.44164        0.75489       -4.97095
H         -3.17621       -1.44189       -7.81501
H         -6.03464       -0.87746       -3.74423
H         -2.41554       -5.71641       -4.30829
H         -3.94296       -4.12406       -1.03222
H         -4.63541       -6.58366        2.53296
H         -6.05199       -5.71775        3.13174
H         -4.74271       -4.82938        2.34855
H         -8.02052       -4.80447       -0.43507
H         -7.15298       -3.71532        0.65479
H         -8.29548       -4.89828        1.31011
H         -7.98037       -8.59747        1.87201
H        -13.16157      -13.72777        0.65167
H        -15.11026      -16.42674        3.64242
H        -16.56272      -16.79357        2.70884
H        -15.85276      -15.17699        2.63626
H        -14.99949      -17.00714       -1.16112
H        -16.02246      -15.75241       -0.45192
H        -16.42761      -17.45859       -0.22053
H        -15.00465      -20.08995        1.96211
H        -11.82559      -22.33698        2.05318
H        -14.50478      -26.56523        3.23496
H        -19.48595      -24.42693        4.57437
H        -16.39747      -28.18497        3.52893
H        -17.63561      -22.82104        4.36679
