131

C          4.16289        5.48225        6.01880
C          3.37358        6.04148        6.96035
C          2.61851        5.25888        7.87968
N          1.97189        4.59394        8.57729
C          3.41653        7.44538        7.19743
N          3.53312        8.57011        7.45870
C          4.71486        4.10931        6.10187
C          6.05044        4.17546        5.67018
C          6.89866        3.08602        5.66312
C          6.34990        1.83965        5.98442
C          4.96870        1.73353        6.32476
C          4.17133        2.88464        6.43957
C          4.40570        0.46427        6.50425
C          5.18723       -0.68339        6.38083
C          6.54929       -0.57494        6.11491
C          7.12956        0.67878        5.92114
C          6.32243        5.49994        5.07514
O          7.37880        5.91478        4.65081
C          4.97721        6.16273        5.02268
C          4.68788        6.90322        3.94185
C          3.41969        7.47858        3.41414
C          3.67475        8.86256        2.87649
C          3.92442        9.91906        3.76808
C          4.22322       11.20232        3.29487
C          4.32695       11.44446        1.92050
C          4.14408       10.38570        1.02148
C          3.82662        9.10113        1.49646
C          4.60323       12.83492        1.48075
O          4.76942       13.79179        2.21565
O          4.62320       12.97338        0.14410
C          2.22921        6.78946        3.21950
C          2.38513        5.27638        3.21525
C          1.75569        4.47001        4.16957
C          1.86938        3.07439        4.12545
C          2.67033        2.45614        3.15902
C          3.28140        3.24279        2.17772
C          3.12191        4.63789        2.19412
C          2.86742        0.99299        3.25571
O          2.20977        0.22065        3.92360
O          3.96670        0.58168        2.57926
C          0.87806        7.37601        2.73370
C         -0.28956        6.65496        2.38876
C         -1.27484        7.11690        1.43307
N         -2.18613        6.22987        0.96464
C         -2.34075        5.04983        1.60280
C         -1.65126        4.79696        2.75114
N         -0.57418        5.53921        3.08596
C         -2.27328        4.05464        3.81547
N         -2.86335        3.57329        4.68928
C         -3.09088        4.02510        0.94013
N         -3.59287        3.13582        0.39178
C         -1.33559        8.46046        0.98844
C         -0.37837        9.29858        1.61840
C          0.61843        8.75222        2.61219
N          1.08129        9.72451        3.41213
S          0.75300       11.15603        2.67300
N         -0.13759       10.60059        1.40277
C         -2.35908        8.95802       -0.05672
C         -2.55328        8.02109       -1.24740
C         -3.81464        7.67471       -1.75181
C         -3.93178        6.85875       -2.88926
C         -2.79531        6.31666       -3.50809
C         -1.53320        6.59263       -2.97559
C         -1.41989        7.44029       -1.86570
C         -2.96128        5.65779       -4.83398
O         -3.89170        5.92432       -5.57611
O         -1.97422        4.80609       -5.17542
C         -3.06210       10.15334        0.05090
C         -3.06056       10.90601        1.35947
C         -2.44979       12.17140        1.46645
C         -2.32882       12.80548        2.71074
C         -2.87854       12.20179        3.84393
C         -3.62399       11.02633        3.72129
C         -3.70953       10.37831        2.48429
C         -2.66487       12.76717        5.19255
O         -3.55931       12.92885        6.00244
O         -1.35959       12.99039        5.45873
C         -3.96046       10.81910       -0.96174
C         -3.79419       11.02864       -2.27614
C         -4.54059       11.69777       -3.38281
C         -5.66088       12.46045       -3.33155
C         -6.32877       12.90186       -4.51482
N         -6.87605       13.25089       -5.47856
C         -6.27253       12.81944       -2.10025
N         -6.76338       13.09951       -1.09143
C         -3.87404       11.27510       -4.66028
C         -3.16173       10.13242       -4.33061
C         -2.68813       10.35591       -2.97720
O         -1.52281       10.24216       -2.63381
C         -2.50193        9.31764       -5.21279
C         -2.16059        9.87319       -6.41693
C         -2.59286       11.19483       -6.72474
C         -3.55374       11.85259       -5.88372
C         -1.91952       11.80972       -7.79119
C         -0.89435       11.13868       -8.48204
C         -0.56434        9.81559       -8.18681
C         -1.23234        9.16763       -7.16764
H          7.92976        3.19890        5.34178
H          3.12648        2.78741        6.71965
H          3.34095        0.35281        6.70551
H          4.72812       -1.66216        6.49666
H          7.16060       -1.47115        6.04382
H          8.19321        0.73820        5.69989
H          5.54335        7.16607        3.30728
H          3.82783        9.76447        4.84079
H          4.34516       12.01622        4.00760
H          4.24544       10.55201       -0.04969
H          3.71341        8.29277        0.77753
H          4.79835       13.93034        0.01075
H          1.14331        4.91876        4.95047
H          1.36649        2.46974        4.87939
H          3.88354        2.77903        1.39897
H          3.59776        5.22078        1.40743
H          4.07252       -0.35463        2.84516
H         -4.71938        8.07846       -1.30482
H         -4.91562        6.69091       -3.32697
H         -0.62032        6.26194       -3.46489
H         -0.41907        7.71181       -1.53255
H         -1.39462        4.52132       -4.44731
H         -1.96446       12.61665        0.59776
H         -1.77694       13.74031        2.78838
H         -4.11788       10.60395        4.59430
H         -4.27859        9.45508        2.40695
H         -0.73933       12.64257        4.79268
H         -4.82061       11.27672       -0.48131
H         -2.05240        8.39807       -4.88144
H         -3.88203       12.85864       -6.13371
H         -2.12074       12.84812       -8.04224
H         -0.31809       11.65924       -9.24331
H          0.23309        9.30067       -8.70992
H         -0.95434        8.14833       -6.90289
