99

C         -5.67535       -0.90000       -3.18329
C         -6.48454       -1.45489       -4.12015
C         -6.36196       -2.80664       -4.53329
N         -6.24950       -3.90948       -4.87643
C         -7.55784       -0.73066       -4.72522
N         -8.41775       -0.14308       -5.22967
C         -4.60497       -1.58904       -2.39494
C         -4.31399       -0.80512       -1.27543
C         -3.32987       -1.09843       -0.34073
C         -2.56696       -2.26481       -0.54802
C         -2.85191       -3.06859       -1.66373
C         -3.86604       -2.74627       -2.60431
S         -1.80770       -4.44531       -1.71324
C         -0.99829       -3.96387       -0.31271
C         -1.47111       -2.79301        0.21430
Br         0.41138       -4.93711        0.44383
C         -5.11753        0.41787       -1.27477
O         -5.20596        1.18058       -0.33697
C         -5.76891        0.46322       -2.62858
C         -6.11556        1.60144       -3.24923
C         -5.92384        2.86750       -2.64335
S         -7.16950        3.54545       -1.71817
C         -6.23394        4.92359       -1.26906
C         -4.96285        4.84557       -1.83753
C         -4.82245        3.69835       -2.70178
C         -3.58254        3.42239       -3.50124
C         -2.59624        4.59053       -3.50853
C         -2.46985        5.23139       -2.11813
N         -1.41539        6.25397       -2.13856
C         -3.82684        5.82861       -1.66265
C         -6.79570        5.96262       -0.46110
C         -8.04776        5.91733        0.02270
C         -8.68183        6.98744        0.74788
C         -8.95837        8.22162        0.28002
C         -8.61306        8.66898       -1.12098
C         -9.67210        9.27505        1.11364
N        -10.63416        8.65475        2.02149
C        -10.36412        8.28623        3.32351
C         -9.82379        9.01993        4.30278
C         -9.63295        8.50992        5.64987
C         -9.24370        9.22053        6.71913
C         -9.17681        8.69844        8.06631
C         -9.02859        9.65031        9.00085
C         -8.99881       10.99582        8.44988
S         -8.85174       10.91841        6.69752
C         -9.21850       12.13992        9.12382
C         -9.48615       12.26461       10.54508
C        -10.10552       13.41059       10.86690
C        -10.39040       14.23841        9.71212
S         -9.47153       13.70102        8.33501
C        -11.34769       15.17717        9.70676
C        -11.88021       15.77401        8.52574
S        -13.15684       14.93121        7.69853
C        -13.44700       16.22197        6.61222
C        -12.60295       17.27218        6.85782
C        -11.66310       17.00003        7.92571
C        -10.69540       17.91245        8.36277
C        -10.78429       19.13644        7.65167
N         -9.89297       20.19483        8.08938
O         -8.68010       19.96388        8.04160
O        -10.42563       21.21988        8.52990
C        -11.73296       19.40600        6.61491
N        -11.74440       20.70284        5.96511
O        -10.69893       21.05186        5.40228
O        -12.81000       21.32921        5.97754
C        -12.69101       18.46927        6.14837
H         -3.14058       -0.42829        0.49418
H         -4.00653       -3.39308       -3.46295
H         -1.06870       -2.32146        1.10327
H         -6.46925        1.62692       -4.27509
H         -3.86057        3.19222       -4.53750
H         -3.08937        2.53229       -3.09235
H         -2.93020        5.34496       -4.23402
H         -1.62351        4.22520       -3.86154
H         -2.16749        4.45880       -1.39899
H         -1.57098        6.89662       -2.91551
H         -0.51656        5.80872       -2.32640
H         -4.05680        6.73010       -2.24547
H         -3.74721        6.12924       -0.61025
H         -6.18503        6.84241       -0.28060
H         -8.68747        5.04699       -0.09298
H         -8.98862        6.69182        1.74667
H         -8.27348        7.85410       -1.76713
H         -7.82080        9.42300       -1.09002
H         -9.49008        9.09911       -1.61560
H        -10.24635        9.93190        0.44949
H         -8.94187        9.90327        1.63532
H        -11.20600        7.96904        1.53129
H        -10.68252        7.26381        3.52172
H         -9.57547       10.05772        4.09909
H         -9.88461        7.46071        5.79433
H         -9.29622        7.64741        8.29150
H         -9.01893        9.44025       10.06079
H         -9.27775       11.48250       11.26105
H        -10.46008       13.64411       11.86127
H        -11.88525       15.38975       10.62643
H        -14.23443       16.13654        5.87463
H         -9.98065       17.73093        9.15648
H        -13.40739       18.68101        5.36370
