88

C         -1.56111       13.09759        0.27053
C         -1.89665       14.40943        0.23978
C         -0.93997       15.45152        0.02867
N         -0.16286       16.29550       -0.13801
C         -3.24762       14.85250        0.33596
N         -4.35247       15.20059        0.42294
C         -0.20111       12.53269        0.00875
C         -0.35206       11.19272       -0.34989
C          0.69941       10.32663       -0.62007
C          2.00793       10.84404       -0.53073
C          2.17659       12.19602       -0.19193
C          1.08344       13.05786        0.09103
S          3.85248       12.62038       -0.16823
C          4.32377       11.04967       -0.56807
C          3.27138       10.18858       -0.72209
Br         6.11243       10.53601       -0.77951
C         -1.76540       10.81000       -0.33650
O         -2.20815        9.79676       -0.83308
C         -2.48664       11.93353        0.35174
C         -3.64849       11.80778        1.02297
C         -4.42377       10.60756        1.12602
S         -6.13997       10.72305        1.18550
C         -6.38739        9.00946        1.11353
C         -5.15837        8.37495        1.07958
C         -4.05622        9.27908        1.22704
N         -4.95615        6.97514        0.86153
O         -5.34991        6.50995       -0.21510
O         -4.33902        6.36033        1.74362
N         -7.68749        8.58531        1.05518
C         -8.21634        7.32914        0.99811
S         -9.45180        7.03562       -0.17874
C         -9.52654        5.39973        0.22291
N        -10.39958        4.53904       -0.50448
O         -9.87848        3.56224       -1.05622
O        -11.60459        4.82144       -0.49758
C         -8.70715        5.04807        1.26343
C         -7.99913        6.18836        1.76827
C         -7.16159        6.09633        2.92963
C         -7.08125        7.01364        3.90650
C         -6.16159        6.90271        5.01761
C         -6.18007        7.64823        6.14157
C         -7.23024        8.67313        6.47707
C         -5.09300        7.49773        7.17874
N         -5.51490        6.50833        8.14878
C         -5.08877        5.20942        8.20500
C         -5.46880        4.26124        9.07179
C         -4.92000        2.92032        9.04161
C         -4.99000        2.06248        8.01373
C         -5.61955        2.17873        6.69533
C         -6.88788        2.57821        6.44159
C         -7.42031        2.67968        5.12571
N         -7.83431        2.78573        4.04742
C         -7.84085        2.75213        7.49594
N         -8.64860        2.79588        8.32122
C         -4.77950        1.38404        5.75827
C         -3.98169        0.52762        6.52924
C         -4.08171        0.87448        7.96293
O         -3.50003        0.33771        8.88105
C         -3.21562       -0.49693        5.98949
C         -3.25191       -0.67136        4.58567
C         -3.98510        0.24024        3.80841
C         -4.73594        1.29820        4.37399
S         -3.86350       -0.13238        2.12616
C         -2.93338       -1.50520        2.43411
C         -2.65049       -1.68491        3.76190
Br        -2.35087       -2.66743        1.08586
H          0.51259        9.28480       -0.86687
H          1.29029       14.08321        0.37716
H          3.37905        9.13845       -0.96755
H         -4.06594       12.66571        1.54436
H         -3.02741        8.93906        1.26353
H         -8.32065        9.30977        0.71520
H         -8.65325        4.04571        1.67444
H         -6.56623        5.18738        3.01225
H         -7.70377        7.90209        3.85048
H         -5.37010        6.16110        4.90139
H         -8.13317        8.57668        5.86882
H         -6.83198        9.68396        6.34413
H         -7.54873        8.56142        7.51886
H         -4.90678        8.45384        7.68210
H         -4.14026        7.21251        6.71395
H         -6.26236        6.78116        8.78062
H         -4.34360        4.98233        7.44336
H         -6.16617        4.48958        9.87445
H         -4.33543        2.65511        9.92392
H         -2.64320       -1.16005        6.63221
H         -5.28199        1.96888        3.71993
H         -2.06183       -2.50907        4.14645
