76

C         11.84226       -3.70249       -7.09992
C         11.59013       -3.97797       -5.81887
C         12.21201       -3.35599       -4.68379
C         11.73004       -3.78293       -3.50749
C         10.68574       -4.78682       -3.63836
S         10.41593       -5.16269       -5.34313
C          9.97026       -5.33415       -2.63818
C         10.06950       -5.02606       -1.22394
C          9.10048       -5.57568       -0.48075
C          8.19028       -6.38859       -1.24910
S          8.69817       -6.52118       -2.90529
C          7.05497       -6.92660       -0.78625
N          6.16123       -7.77519       -1.41087
C          6.36921       -9.09780       -1.71152
S          7.88412       -9.91794       -1.58328
C          7.16272      -11.43008       -1.79762
N          7.92984      -12.62609       -1.62352
O          7.52871      -13.62151       -2.23796
O          8.88520      -12.60205       -0.83833
C          5.83914      -11.34972       -2.15891
C          5.40284       -9.99231       -2.15656
C          4.13439       -9.55018       -2.63560
C          3.93476       -9.51127       -3.95961
C          2.88889       -8.78084       -4.55925
S          3.39443       -7.43978       -5.56847
C          1.81958       -7.16774       -6.16970
C          0.96194       -8.02683       -5.55542
C          1.51877       -8.91622       -4.60646
C          0.55024       -9.84825       -4.05592
C         -0.63714       -9.72176       -4.71069
S         -0.70920       -8.29046       -5.82390
O         -0.84884       -8.86199       -7.27706
N          0.86253      -10.72587       -3.00519
C          0.05016      -11.36136       -2.08948
S         -1.68891      -11.24671       -2.14406
C         -1.91663      -12.39196       -0.94504
N         -3.23521      -12.85500       -0.62848
O         -3.32520      -14.03271       -0.25783
O         -4.17186      -12.05296       -0.73073
C         -0.73974      -12.79180       -0.37467
C          0.40447      -12.15756       -0.98980
C          1.70608      -12.49643       -0.47542
C          2.65754      -11.70203        0.05272
N          3.76756      -12.19169        0.73030
C          4.88667      -11.58652        1.24402
S          5.10750       -9.87336        1.40096
C          6.74739      -10.04805        1.79820
N          7.63107       -8.92679        1.92368
O          7.15753       -7.87299        2.37409
O          8.80783       -9.09969        1.59376
C          7.11937      -11.35325        1.95767
C          6.01649      -12.24024        1.75139
C          6.13092      -13.65528        1.97122
C          6.98250      -14.21332        2.84714
H         12.57012       -2.95408       -7.38835
H         11.31642       -4.21928       -7.89805
H         12.98676       -2.60947       -4.78107
H         12.07978       -3.40858       -2.55616
H         10.84530       -4.39653       -0.80607
H          9.01321       -5.45568        0.59242
H          6.71475       -6.65762        0.20951
H          5.19736       -7.51262       -1.21242
H          5.21886      -12.20648       -2.39630
H          3.43184       -9.09439       -1.94050
H          4.71842       -9.87598       -4.62523
H          1.62357       -6.42730       -6.93275
H         -1.50153      -10.35058       -4.59603
H          1.86485      -10.85461       -2.89693
H         -0.69003      -13.49930        0.44643
H          1.85464      -13.57013       -0.35202
H          2.57349      -10.61909        0.02645
H          3.73897      -13.20538        0.81892
H          8.13090      -11.65639        2.21114
H          5.48230      -14.32807        1.41756
H          7.65643      -13.62512        3.46515
H          7.02536      -15.28906        2.98345
