112

C          3.52711       -0.47200        0.38626
S          3.56133        1.01989       -0.40174
C          2.88284        1.90377        0.94345
C          2.41636        0.95813        1.87399
C          2.78121       -0.41036        1.53407
C          2.36737       -1.60525        2.34757
F          2.05709       -2.65236        1.53214
C          1.13395       -1.29212        3.19166
C          1.36225       -0.01626        3.99996
C          1.54414        1.18806        3.07716
F          1.94616        2.25659        3.80551
C          2.79058        3.34872        0.83984
C          3.80085        4.18954        0.44296
N          5.16804        3.89360        0.08559
O          5.39318        3.19670       -0.90658
O          6.03746        4.52964        0.70360
C          3.39958        5.57588        0.38562
C          2.15474        5.65178        0.84393
C          1.73277        4.33880        1.30477
C          0.53247        4.25262        1.91760
C         -0.44142        3.18951        1.76694
C         -1.40095        3.37032        2.68817
C         -1.09586        4.56585        3.45048
N         -1.88680        4.97723        4.59738
O         -3.07359        4.61929        4.59962
O         -1.35282        5.61826        5.51065
C          0.00214        5.20074        2.97830
C          0.65591        6.33469        3.62111
C          1.00302        7.50269        3.05849
C          1.76342        8.57274        3.66713
N          2.05487        9.78022        3.01020
C          1.60288       10.19598        1.68770
C          2.25332        9.47448        0.51392
C          2.77832       10.66436        3.85367
O          3.17559       11.79105        3.63586
C          2.91747        9.90388        5.11628
C          2.31737        8.61460        4.88476
C          2.52136        7.81478        6.09969
O          2.31473        6.62692        6.25311
N          3.08748        8.72963        7.00770
C          3.52974        8.19698        8.27662
C          3.37909        9.08908        9.47643
C          3.35765        9.95863        6.38155
C          4.00619       11.08864        7.01886
C          3.47557       11.81377        8.02677
C          4.09616       12.98629        8.62766
C          4.60429       13.13615        9.87717
N          4.64252       12.14614       10.91323
O          4.04401       12.41594       11.95955
O          5.36889       11.16119       10.73599
C          5.22266       14.42216       10.08757
C          5.14973       15.11192        8.93977
C          4.41179       14.29373        7.96842
C          4.04102       14.71482        6.73969
C          3.00138       14.10756        5.90754
C          2.87037       14.85294        4.80276
C          3.82108       15.93343        4.86330
N          4.01990       16.89489        3.80637
O          3.74908       16.51339        2.65694
O          4.39256       18.03437        4.10094
C          4.55740       15.90244        6.00494
C          5.72573       16.69232        6.28182
C          6.92203       16.48417        5.69834
C          8.07957       17.28825        5.95533
S          8.11000       18.48128        7.20748
C          9.67370       19.00180        6.81447
C         10.21789       18.28070        5.77889
C          9.30962       17.26400        5.29283
C          9.69268       16.36598        4.13924
F          9.41294       15.06209        4.42824
C         11.18683       16.44877        3.78997
C         11.70407       17.88751        3.80548
C         11.58678       18.49032        5.20618
F         11.87605       19.81868        5.12140
H          3.96028       -1.35133       -0.07445
H          3.19650       -1.92073        2.98973
H          0.90681       -2.13540        3.85186
H          0.25777       -1.17534        2.53725
H          2.22532       -0.12336        4.66385
H          0.49318        0.16930        4.64399
H          0.54425        1.37031        2.70446
H          3.95099        6.36273       -0.10800
H          1.49177        6.47578        0.68622
H         -0.40469        2.41050        1.01484
H         -2.26561        2.74596        2.85850
H          0.85669        6.16283        4.67362
H          0.68657        7.68049        2.04143
H          1.81028       11.26395        1.57045
H          0.51397       10.07840        1.64603
H          3.34410        9.46289        0.58313
H          1.96619        9.95161       -0.42995
H          1.91752        8.44364        0.43738
H          4.57119        7.87752        8.15960
H          2.94740        7.29107        8.48635
H          4.13632        9.85585        9.40738
H          3.56717        8.54591       10.40531
H          2.38886        9.54895        9.53311
H          4.96268       11.37946        6.58770
H          2.49254       11.55967        8.42053
H          5.64841       14.75492       11.02215
H          5.48430       16.12898        8.82988
H          2.38974       13.25309        6.13759
H          2.18537       14.67611        3.98600
H          5.56415       17.49136        6.99914
H          7.02373       15.68693        4.96381
H         10.12848       19.81860        7.35890
H          9.09630       16.63958        3.26130
H         11.35294       16.00006        2.80356
H         11.76595       15.84152        4.49791
H         11.14142       18.49747        3.08701
H         12.75107       17.92307        3.48355
H         12.32677       18.03617        5.87513
