124

C         -2.67790        7.52908       11.00382
C         -2.75962        8.87288       11.00569
C         -1.62357        9.72956       10.87054
N         -0.72663       10.41053       10.62389
C         -4.01819        9.50451       11.11844
N         -5.04689       10.02416       11.30404
C         -1.48888        6.71390       11.42437
C         -1.91991        5.41275       11.70419
C         -1.01207        4.38823       11.99414
C          0.37742        4.64251       11.83151
C          0.79227        5.88859       11.31158
C         -0.12006        6.95339       11.25750
C          2.09693        6.03519       10.79222
C          3.05391        5.05367       10.99258
C          2.71738        3.95549       11.76304
C          1.38360        3.70580       12.11899
C         -3.35591        5.26245       11.28850
O         -4.02325        4.25030       11.36036
C         -3.73434        6.57608       10.59160
C         -4.53910        6.53631        9.48076
C         -4.81439        7.53576        8.31436
C         -6.24568        7.38234        7.80152
O         -7.25474        7.77129        8.36759
O         -6.27388        6.73882        6.59374
C         -4.95633        6.57069        6.03514
C         -4.06418        7.40752        6.94327
C         -3.79959        8.78977        6.30902
C         -3.26191        8.78379        4.86117
C         -3.81521        7.69376        3.94186
C         -5.01447        6.98579        4.53985
O         -5.22278        5.85655        3.68470
C         -4.20849        5.69271        2.78639
O         -4.21881        4.81859        1.93044
C         -3.05327        6.66971        3.02058
C         -1.85964        5.70824        3.14049
C         -1.04407        5.18401        2.18207
N         -0.68887        5.86587        0.96994
O         -0.25997        5.17156        0.03964
O         -0.70783        7.10424        0.99135
C         -0.36120        3.98267        2.62868
C         -0.68359        3.76902        3.91095
C         -1.38488        4.98306        4.33038
C         -0.83929        5.66235        5.34459
C         -0.57788        7.09038        5.21995
C         -0.19874        7.52539        6.41502
C         -0.17445        6.37556        7.30296
N         -1.03072        6.53294        8.43622
O         -1.63279        5.54538        8.87257
O         -1.23360        7.70821        8.76795
C         -0.38438        5.20718        6.65545
C         -0.13866        3.91219        7.27531
C         -0.69870        2.73454        6.97263
C         -0.17396        1.45896        7.40258
C          0.43209        1.15937        8.57565
C          0.71209       -0.28230        8.58020
C          0.31809       -0.78347        7.26400
C         -0.21782        0.24458        6.59160
C          0.54880       -2.05974        6.70212
N          0.74464       -3.10212        6.23122
C          1.11029       -0.98880        9.65321
C          1.03904       -2.43491        9.78535
C          1.17224       -2.72020       11.09169
C          1.45224       -1.50365       11.82829
C          1.53570       -0.48695       10.95722
C          2.52706        0.48338       11.19228
N          3.47748        1.09863       11.44200
C          1.18446       -4.03975       11.62262
C          0.43476       -4.32390       12.68654
C          0.36656       -5.66487       13.19578
C         -0.70723       -6.19895       13.75695
C         -0.86595       -7.55448       14.29982
C         -0.19087       -8.66269       13.89961
C         -0.48997       -9.95459       14.40951
N         -0.72578      -10.99352       14.83084
C          0.82300       -8.65581       12.89662
N          1.65508       -8.66641       12.08918
C         -2.04103       -7.50667       15.21110
C         -2.71618       -6.29398       15.00427
C         -1.98040       -5.45419       14.05603
O         -2.34813       -4.37225       13.65420
C         -3.86771       -5.92344       15.67435
C         -4.36807       -6.80074       16.63777
C         -3.68347       -8.02234       16.90175
C         -2.52190       -8.36486       16.18430
C         -4.17625       -8.87671       17.89416
C         -5.32351       -8.54449       18.61316
C         -5.99711       -7.35448       18.34653
C         -5.52260       -6.48587       17.36406
H         -1.36858        3.38593       12.21232
H          0.24895        7.91169       10.90603
H          2.37806        6.91470       10.21745
H          4.06470        5.15825       10.60324
H          3.51272        3.28052       12.06399
H          1.14892        2.78328       12.64426
H         -5.09068        5.59897        9.35008
H         -4.71539        8.56038        8.68255
H         -4.71254        5.50588        6.11603
H         -3.11444        6.89820        7.05677
H         -3.10047        9.35187        6.94076
H         -4.73296        9.37110        6.31545
H         -2.18458        8.88045        4.83229
H         -3.58059        9.75405        4.44310
H         -4.27490        8.31931        3.14931
H         -5.89326        7.63412        4.40157
H         -2.91673        7.20640        2.07241
H          0.29318        3.36702        2.03240
H         -0.24169        2.99274        4.50993
H         -0.66224        7.69435        4.33216
H         -0.03519        8.55109        6.71446
H          0.62035        3.93086        8.06003
H         -1.51173        2.66873        6.25367
H          0.59669        1.83695        9.39963
H         -0.56750        0.21966        5.56923
H          0.84751       -3.16697        9.01924
H          1.85996       -1.51987       12.83118
H          1.77690       -4.79145       11.10749
H         -0.19108       -3.55962       13.13832
H          1.29172       -6.21614       13.06724
H         -4.33754       -4.96593       15.46478
H         -2.01263       -9.29098       16.43062
H         -3.66794       -9.81257       18.11916
H         -5.69116       -9.21741       19.38274
H         -6.89241       -7.10099       18.90800
H         -6.06159       -5.55909       17.17569
