95

C         -3.53002        0.08888       -4.49640
O         -4.49382        0.69974       -3.76029
C         -4.12400        2.03434       -3.82000
N         -3.00649        2.16536       -4.52315
N         -2.63159        0.91523       -4.96456
C         -4.88673        3.05805       -3.19253
C         -4.47321        4.33667       -3.19541
C         -5.24165        5.44558       -2.66539
C         -5.73261        6.46812       -3.41313
N         -5.57034        6.61064       -4.84483
O         -5.57827        7.77077       -5.28444
O         -5.46999        5.59423       -5.53828
C         -6.44741        7.43697       -2.61829
C         -6.37246        7.06239       -1.33559
C         -5.58030        5.83256       -1.24765
C         -5.22796        5.24736       -0.07783
C         -4.57878        3.94522        0.03940
C         -4.40477        3.67833        1.33904
C         -4.87883        4.80413        2.11512
N         -4.63237        4.88120        3.54579
O         -4.82810        5.94408        4.14112
O         -4.18835        3.85490        4.08265
C         -5.40982        5.77345        1.32876
C         -5.86412        7.09775        1.74437
C         -6.86814        7.33337        2.61524
C         -7.19674        8.62815        3.16066
N         -7.54690        9.76968        2.43009
C         -7.70125        9.81560        0.98727
C         -8.66325       10.86270        0.44616
C         -7.70760       10.89310        3.28377
O         -7.98218       12.04732        3.03173
C         -7.47754       10.32765        4.62471
C         -7.20963        8.92296        4.47067
C         -7.02121        8.35516        5.80794
O         -6.88647        7.18324        6.09800
N         -7.12603        9.48532        6.65603
C         -7.01825        9.31573        8.09245
C         -8.31914        8.92624        8.77482
C         -7.40419       10.64932        5.92181
C         -7.65292       11.96416        6.46231
C         -7.00767       12.52281        7.49684
C         -7.40699       13.77023        8.04662
S         -8.68990       13.78206        9.18399
C         -6.84438       15.02773        7.91334
C         -5.71630       15.34649        7.02228
O         -5.28187       14.59972        6.15494
C         -5.16462       16.66487        7.29511
C         -4.01052       17.23061        6.78930
N         -3.88460       18.48550        7.32716
C         -2.78634       19.40077        7.06195
C         -3.23486       20.66446        6.35015
C         -4.92967       18.73061        8.18270
C         -5.74080       17.61091        8.19656
C         -6.94826       17.37863        8.97492
O         -7.43102       18.22742        9.71411
C         -7.45861       16.00397        8.82006
C         -8.52623       15.45270        9.51226
C         -9.44604       16.08279       10.41931
O         -9.89955       17.36211       10.26672
C        -10.74688       17.54212       11.34016
N        -10.82720       16.42734       12.05081
N        -10.00244       15.49397       11.45987
C        -11.42247       18.76147       11.61021
C        -11.25207       19.84757       10.84429
H         -3.59660       -0.98132       -4.61879
H         -5.81734        2.76314       -2.72000
H         -3.55211        4.60543       -3.71636
H         -6.98962        8.28255       -3.01512
H         -6.87195        7.55910       -0.52857
H         -4.30563        3.26164       -0.74054
H         -3.96808        2.78212        1.75519
H         -5.29171        7.92968        1.33729
H         -7.38289        6.49312        3.08210
H         -8.09134        8.84465        0.67203
H         -6.70969        9.95734        0.54534
H         -9.63984       10.79428        0.93581
H         -8.80964       10.71485       -0.62910
H         -8.27419       11.87553        0.58254
H         -6.61301       10.20481        8.56774
H         -6.28337        8.52358        8.27818
H         -9.11547        9.64871        8.57375
H         -8.16488        8.88360        9.85923
H         -8.65874        7.93858        8.44795
H         -8.41453       12.54530        5.93697
H         -6.16263       12.03846        7.97075
H         -3.27556       16.82873        6.10383
H         -2.04690       18.87040        6.45091
H         -2.32085       19.63495        8.02536
H         -3.70641       20.42856        5.39045
H         -2.37735       21.31731        6.16119
H         -3.95980       21.22436        6.95025
H         -5.01409       19.66461        8.72127
H        -12.08134       18.78868       12.47137
H        -10.58948       19.85068        9.98232
H        -11.77172       20.77200       11.07303
