100

C        -17.55284       -8.78994        5.52356
C        -16.47792       -9.39362        4.96006
C        -16.06197      -10.71199        5.30450
N        -15.72469      -11.78982        5.58933
C        -15.62863       -8.73936        4.01217
N        -14.94775       -8.23810        3.22996
C        -18.41628       -9.37442        6.59241
C        -19.10615       -8.33841        7.22467
C        -19.96658       -8.51838        8.30249
C        -20.16053       -9.83476        8.77412
C        -19.51709      -10.88983        8.10935
C        -18.65491      -10.68208        7.00275
S        -19.91722      -12.41148        8.82083
C        -20.87882      -11.68000        9.99812
C        -20.94989      -10.31822        9.87377
Br       -21.76277      -12.64216       11.34029
C        -18.84889       -7.05792        6.55653
O        -19.29316       -5.98642        6.91274
C        -17.98742       -7.37959        5.36690
C        -17.81360       -6.51220        4.35810
C        -18.37141       -5.17215        4.28340
C        -17.65560       -4.04542        4.16433
C        -18.21232       -2.73920        3.89776
C        -17.30274       -1.86645        3.43441
C        -15.96461       -2.43093        3.33909
S        -15.91663       -3.97658        4.19255
C        -14.94210       -1.98208        2.58733
C        -14.96764       -0.86255        1.66262
C        -13.99843       -0.92543        0.73435
C        -13.14421       -2.08652        0.88158
S        -13.41567       -2.85229        2.41938
C        -12.32721       -2.56047       -0.07013
C        -11.55284       -3.80938        0.00725
C        -10.25857       -3.79546        0.52889
C         -9.52555       -4.97774        0.51539
C        -10.05134       -6.17873       -0.01300
C        -11.35038       -6.20741       -0.49110
C        -12.09977       -5.01800       -0.47440
C         -8.99886       -7.18137       -0.03292
C         -7.80799       -6.60072        0.44577
C         -8.09557       -5.20387        1.00122
C         -7.12892       -4.14879        0.46788
C         -8.09133       -5.22445        2.54022
C         -6.57993       -7.25710        0.33409
C         -6.52192       -8.57417       -0.14887
C         -7.75340       -9.17182       -0.52980
C         -8.97927       -8.47953       -0.50450
C         -5.22581       -9.31672       -0.29717
S         -5.12157      -10.43809       -1.62155
C         -3.55226      -10.91967       -1.22508
C         -3.03203      -10.22088       -0.16014
N         -1.76869      -10.52824        0.27357
O         -1.43204      -10.43630        1.60872
O         -0.70635      -10.32251       -0.59856
C         -3.99242       -9.25795        0.37650
N         -3.70938       -8.38035        1.39192
O         -4.68206       -7.99840        2.30874
O         -2.39610       -8.04057        1.67688
N         -2.27841       -7.30760        2.85384
C         -1.02610       -7.02034        3.30699
S          0.38533       -7.59882        2.50126
C          1.39832       -6.82165        3.59537
N          2.80770       -6.92037        3.41387
O          3.43517       -5.85435        3.41156
O          3.28658       -8.05520        3.29743
C          0.73336       -6.12782        4.57417
C         -0.68672       -6.24558        4.41148
C         -1.66036       -5.67462        5.29952
C         -1.49757       -4.54888        6.00807
H        -20.46788       -7.66907        8.75760
H        -18.21592      -11.54646        6.51676
H        -21.52591       -9.68088       10.53406
H        -17.25259       -6.78043        3.46784
H        -19.45782       -5.11771        4.24329
H        -19.26707       -2.52418        3.99842
H        -17.54990       -0.86346        3.11729
H        -15.73671       -0.10299        1.66666
H        -13.89589       -0.22539       -0.08340
H        -12.24414       -2.04591       -1.02319
H         -9.82544       -2.87943        0.91700
H        -11.78145       -7.11547       -0.89943
H        -13.11793       -5.03353       -0.85863
H         -7.10301       -4.14646       -0.62756
H         -6.10983       -4.32716        0.82772
H         -7.41684       -3.14337        0.79474
H         -8.84784       -5.91032        2.94494
H         -8.31224       -4.23097        2.94922
H         -7.12053       -5.54228        2.93582
H         -5.67895       -6.72083        0.60841
H         -7.77460      -10.19876       -0.89051
H         -9.87816       -8.96396       -0.87110
H         -3.08158      -11.71713       -1.78311
H         -0.75336       -9.73677        1.58014
H         -0.76625      -11.09240       -1.19056
H         -4.23021       -8.20716        3.14406
H         -2.94442       -6.53577        2.84463
H          1.23089       -5.59143        5.37328
H         -2.60809       -6.20229        5.40824
H         -0.59562       -3.94874        5.94753
H         -2.28477       -4.18958        6.66472
