88

C          3.82299      -10.33129        8.90120
C          2.98870      -10.17782        7.87040
C          2.01648       -9.12644        7.75710
C          1.36112       -9.14010        6.59018
C          1.76598      -10.21133        5.68734
S          2.96430      -11.23509        6.48116
C          1.32079      -10.37164        4.42416
C          0.43184       -9.44585        3.74376
C          0.18713       -9.75700        2.46701
C          0.79081      -10.99777        2.05151
S          1.75459      -11.69641        3.33017
C          0.55052      -11.54560        0.85177
N          0.90598      -12.77431        0.35241
C          0.58202      -13.36766       -0.83481
S          0.96022      -15.05165       -1.00013
C          0.38906      -15.10699       -2.59067
N          0.42827      -16.32758       -3.34832
O          0.02356      -16.25966       -4.51763
O          0.85534      -17.35031       -2.79781
C         -0.08115      -13.89602       -3.03304
C          0.04082      -12.88458       -2.02828
C         -0.36599      -11.54205       -2.30554
C          0.25976      -10.60853       -3.04732
C          1.59763      -10.54274       -3.68587
C          1.83810       -9.75599       -4.84311
C          3.16513       -9.37697       -5.24653
N          3.38474       -8.71720       -6.40727
C          2.32815       -8.48861       -7.22213
C          1.04276       -8.78332       -6.81376
N          0.79109       -9.37222       -5.60912
C         -0.09279       -8.56115       -7.65267
N         -0.99828       -8.38361       -8.35600
C          2.64432       -8.05502       -8.55440
N          2.89213       -7.76211       -9.64936
C          4.27380       -9.70446       -4.46714
C          4.11186      -10.74985       -3.52850
C          2.74316      -11.16378       -3.11245
N          2.79918      -12.08351       -2.14448
S          4.36568      -12.49946       -1.88335
N          5.08892      -11.41208       -2.88358
C          5.40233       -8.79924       -4.23297
C          5.36130       -7.51125       -3.71134
C          6.66144       -7.05659       -3.28060
C          7.06168       -5.86158       -2.62831
C          8.39655       -5.67596       -2.23690
C          9.34073       -6.66813       -2.47580
C          8.98039       -7.84545       -3.13213
C          7.64445       -8.01510       -3.54272
S          7.00617       -9.35246       -4.41041
C          8.78310       -4.46134       -1.58971
N          9.09407       -3.47268       -1.06201
C          4.15271       -6.75355       -3.54524
C          3.29864       -6.75146       -2.49192
C          2.23554       -5.81927       -2.81982
C          1.12575       -5.44888       -2.14690
C          0.26594       -4.47191       -2.79975
C         -0.90780       -3.91968       -2.42454
C         -1.35169       -2.94879       -3.44332
C         -0.43412       -2.90313       -4.43510
C          0.58966       -3.86076       -4.09945
C          1.69334       -4.23096       -4.77196
C          2.52307       -5.23592       -4.13886
C          3.66216       -5.80793       -4.55956
C         -2.53728       -2.12989       -3.44154
C         -3.78000       -2.62308       -3.37629
H          3.81250       -9.64731        9.74405
H          4.54918      -11.13683        8.92996
H          1.84194       -8.39981        8.53873
H          0.59359       -8.41849        6.35264
H          0.01464       -8.56661        4.21110
H         -0.44515       -9.17034        1.81609
H         -0.06016      -10.97729        0.16111
H          1.42957      -13.33770        1.02319
H         -0.48211      -13.72859       -4.02697
H         -1.35100      -11.28095       -1.91783
H         -0.30031       -9.67966       -3.18999
H          6.32166       -5.09134       -2.41671
H         10.37448       -6.53509       -2.15930
H          9.71847       -8.62139       -3.31818
H          3.37804       -7.31431       -1.57456
H          0.86562       -5.83234       -1.16919
H         -1.45579       -4.11225       -1.51595
H         -0.45995       -2.28922       -5.32140
H          1.97010       -3.80642       -5.72780
H          4.17347       -5.61733       -5.49080
H         -2.39192       -1.05495       -3.53309
H         -3.97248       -3.69013       -3.32536
H         -4.64001       -1.96059       -3.40578
