123

C         -0.76267      -11.27013      -12.64778
S         -1.13158      -12.56248      -11.58224
C         -1.48219      -11.49807      -10.24843
C         -1.28290      -10.19098      -10.65082
C         -0.88794      -10.06844      -12.00154
C         -0.67174       -8.72632      -12.45336
O         -0.32327       -8.37675      -13.56998
S         -0.99134       -7.62694      -11.11208
C         -1.36695       -8.92430       -9.96601
O         -1.63415       -8.71778       -8.79295
C         -1.86884      -12.08132       -9.00435
C         -2.71345      -11.45896       -8.16449
C         -3.07724      -11.99711       -6.85443
C         -2.29846      -11.70100       -5.72471
C         -2.67685      -12.23325       -4.49183
C         -3.82591      -13.04686       -4.38250
C         -4.60662      -13.32332       -5.49381
C         -4.22881      -12.79746       -6.73338
C         -3.96478      -13.48812       -3.00967
C         -2.91056      -12.96207       -2.23681
C         -1.96188      -12.13671       -3.12572
C         -1.86561      -10.64962       -2.67251
C         -1.27973      -10.39695       -1.28200
C         -0.55548      -12.79068       -3.21463
C         -0.51509      -14.20082       -3.80675
C         -2.82608      -13.22974       -0.86953
C         -3.80812      -14.01443       -0.24799
C         -4.84197      -14.55270       -1.04427
C         -4.91827      -14.30454       -2.42437
C         -3.86128      -14.18838        1.22167
C         -2.81409      -14.17259        2.07293
C         -2.93730      -14.19204        3.54707
C         -1.90278      -14.70282        4.38606
N         -0.82329      -15.57897        4.18972
C         -0.92108      -16.68537        3.23985
C         -1.52881      -17.92513        3.89191
C          0.04063      -15.58349        5.29671
C         -0.70414      -14.96944        6.31889
C         -1.92400      -14.47865        5.76595
C         -3.03489      -13.84371        6.35848
C         -4.09268      -13.41533        5.56627
C         -4.02310      -13.55385        4.18586
C         -0.20823      -14.93138        7.64121
C          1.01395      -15.50725        7.94709
C          1.75890      -16.09155        6.93752
C          1.33330      -16.12213        5.58497
C          2.22179      -16.77105        4.59428
C          3.56698      -16.65860        4.68052
C          4.52650      -17.45246        3.92896
C          5.87148      -17.39211        4.04688
C          6.79367      -18.28012        3.37719
C          8.08139      -18.06313        3.68544
C          8.28954      -16.98615        4.63832
S          6.73682      -16.26422        5.06537
C          9.46772      -16.59932        5.16970
C         10.77806      -17.14641        4.86592
C         11.75861      -16.68088        5.65104
C         11.30209      -15.74945        6.65640
S          9.61705      -15.35908        6.41707
C         12.07173      -15.27446        7.64933
C         11.65392      -14.45360        8.76055
C         10.68962      -14.80295        9.64646
C         10.63372      -13.76329       10.63850
C          9.86307      -13.63744       11.73415
C         10.05522      -12.43218       12.51311
C          9.43657      -11.98847       13.62497
C          9.95277      -10.65248       13.98468
C         10.92391      -10.31596       13.10669
C         11.02901      -11.39107       12.15542
C         11.81852      -11.52540       11.07440
C         11.62867      -12.73710       10.29755
C         12.24060      -13.16861        9.18490
C          9.47565       -9.82934       15.07495
C          9.88324       -8.58470       15.35464
H         -0.46744      -11.45357      -13.67338
H         -1.46869      -13.06005       -8.74348
H         -3.18142      -10.50879       -8.39937
H         -1.41190      -11.07848       -5.81391
H         -5.49498      -13.94210       -5.41717
H         -4.83675      -13.00999       -7.61016
H         -2.85612      -10.17728       -2.70928
H         -1.24233      -10.09864       -3.38958
H         -1.97489      -10.69481       -0.49318
H         -1.09826       -9.32786       -1.13407
H         -0.32948      -10.91608       -1.13024
H         -0.10457      -12.84350       -2.21766
H          0.10264      -12.15556       -3.82266
H         -1.14513      -14.89534       -3.24370
H          0.51000      -14.58421       -3.77748
H         -0.83410      -14.21305       -4.85322
H         -2.01846      -12.81231       -0.28117
H         -5.61055      -15.17505       -0.58888
H         -5.71687      -14.74408       -3.01249
H         -4.87260      -14.29161        1.61106
H         -1.80000      -14.06661        1.69855
H          0.06409      -16.87803        2.81832
H         -1.55789      -16.38352        2.40704
H         -0.90974      -18.29328        4.71673
H         -1.63714      -18.73157        3.16106
H         -2.52273      -17.70783        4.30178
H         -3.06841      -13.69693        7.43435
H         -4.95457      -12.94092        6.02720
H         -4.83666      -13.13308        3.59860
H         -0.79017      -14.45891        8.42739
H          1.38427      -15.49833        8.96789
H          2.70569      -16.54984        7.22393
H          1.77244      -17.42905        3.86755
H          3.99123      -15.98682        5.42215
H          4.09985      -18.20462        3.26954
H          6.46533      -19.07193        2.71689
H          8.88986      -18.66678        3.29476
H         10.94858      -17.87364        4.08509
H         12.79144      -16.99469        5.57850
H         13.12150      -15.55759        7.68354
H         10.07870      -15.69002        9.63607
H          9.12266      -14.37241       12.02238
H          8.65531      -12.49848       14.16634
H         11.50105       -9.40754       13.06933
H         12.53457      -10.77941       10.76884
H         13.02679      -12.66377        8.64584
H          8.69459      -10.26922       15.69250
H         10.64581       -8.07428       14.77689
H          9.44379       -8.03283       16.17990
