72

C         -1.07528       -5.95429       -1.73551
C         -2.25833       -5.75433       -2.44986
C         -2.16845       -5.62143       -3.84336
C         -0.95191       -5.66942       -4.51228
C          0.23882       -5.86529       -3.77231
C          0.15455       -6.00514       -2.39660
N          1.44039       -5.91922       -4.37662
C          1.44240       -5.77172       -5.71863
C          0.28206       -5.57921       -6.43973
N         -0.93199       -5.52721       -5.85107
C         -3.55876       -5.70026       -1.78002
C         -3.86518       -5.29615       -0.54045
C         -5.27596       -5.40016       -0.36560
C         -5.85545       -5.92650       -1.60726
O         -7.01457       -6.16842       -1.85846
N         -4.73172       -6.07448       -2.41832
C         -5.51702       -4.96870        0.85783
O         -4.35780       -4.56730        1.57111
C         -3.29844       -4.76325        0.70135
O         -2.12806       -4.53622        0.93973
C         -6.77524       -4.83157        1.48660
S         -6.86938       -4.95680        3.22818
C         -8.48187       -4.59159        3.19190
C         -9.01443       -4.41114        1.93701
C         -8.03404       -4.57408        0.93413
C        -10.43378       -4.05549        2.04887
O        -11.23162       -3.81922        1.15741
C        -10.64726       -4.01244        3.49838
C         -9.48430       -4.34859        4.15009
S         -9.56578       -4.31143        5.80179
C        -11.22032       -3.77138        5.72992
C        -11.67168       -3.68485        4.41022
C        -11.94219       -3.45617        6.94191
S        -13.55853       -2.88268        6.89054
C        -13.65155       -2.75401        8.58527
C        -12.48070       -3.13033        9.19731
C        -11.49538       -3.53788        8.25035
C        -14.82714       -2.32142        9.24877
C        -15.85552       -1.98298        9.77233
C        -17.09401       -1.63217       10.36829
C        -17.41532       -0.35793       10.62974
C        -18.66566        0.02098       11.26110
C        -19.07057        1.26714       11.55222
C        -20.31763        1.57379       12.21208
C        -20.51502        2.88445       12.41147
C        -19.43793        3.72720       11.91732
S        -18.17712        2.72434       11.20022
C        -19.38350        5.07224       11.98010
C        -20.39491        5.94477       12.55244
C        -20.10142        7.25005       12.47002
C        -18.83755        7.50941       11.83135
S        -18.04137        6.03853       11.35519
C        -18.31300        8.71763       11.61340
H         -1.07494       -6.07932       -0.65520
H         -3.05842       -5.45802       -4.44684
H          1.06537       -6.15710       -1.82204
H          2.41207       -5.81307       -6.19995
H          0.29496       -5.46029       -7.51689
H         -4.79759       -6.43484       -3.36068
H         -8.21910       -4.45390       -0.12774
H        -12.66717       -3.36645        4.12361
H        -12.33002       -3.12373       10.27042
H        -10.50433       -3.87284        8.53234
H        -17.77426       -2.44355       10.60542
H        -16.71290        0.43197       10.37025
H        -19.32265       -0.80650       11.53011
H        -21.01663        0.80857       12.52091
H        -21.39682        3.27433       12.89889
H        -21.30665        5.58007       13.00249
H        -20.74042        8.03956       12.83984
H        -18.82659        9.62344       11.91484
H        -17.35113        8.83375       11.12289
