122

C          7.95966        9.24103       -0.40704
C          7.34006       10.43927       -0.08820
F          7.76668       11.56796       -0.66940
C          6.31831       10.48659        0.84932
C          5.87603        9.30998        1.46470
C          6.49351        8.08046        1.18240
C          7.57062        8.06954        0.24872
C          8.30836        6.90542        0.03235
C          8.04397        5.79911        0.81603
C          6.89272        5.75404        1.60222
C          6.10564        6.87676        1.80779
C          6.72032        4.37678        2.12116
O          5.79093        3.97325        2.79163
C          7.91317        3.58422        1.60928
C          8.85358        4.58326        1.07825
C         10.20512        4.64886        1.15424
C         11.06174        3.62543        1.61830
N         11.85443        2.83080        1.91410
C         10.93881        5.84547        0.84776
N         11.53212        6.79125        0.59818
C          7.83324        2.24182        1.61291
C          8.77572        1.25323        1.06704
C          9.76500        0.66848        1.85565
C         10.02969        1.01048        3.26625
O          9.47030        1.90251        3.87920
S         11.33088        0.05380        3.91499
C         11.31192       -0.95970        2.48980
O         11.60121       -2.14220        2.52595
C         10.64575       -0.30678        1.35022
C         10.71200       -0.64992       -0.02792
C          9.69428       -0.05067       -0.81524
C          8.70642        0.78376       -0.24702
C          7.56727        1.01567       -1.14529
O          6.49286        1.46657       -0.79455
S          7.89661        0.44236       -2.75006
C          9.49511       -0.09695       -2.28009
O         10.35358       -0.34288       -3.10259
C         11.74332       -1.59402       -0.57528
C         11.69780       -2.48814       -1.62651
C         12.88444       -3.32121       -1.82259
C         13.18614       -4.31225       -2.80138
C         12.34291       -4.41562       -4.04352
C         11.98142       -5.50595       -4.82856
C         11.17535       -5.17753       -5.96008
C         10.90176       -3.83381       -6.03157
S         11.73521       -2.98290       -4.81281
C         10.05381       -3.10185       -7.01812
Cl        10.62930       -6.36616       -7.06518
C         14.28788       -5.18463       -2.59913
C         15.17352       -5.02735       -1.51750
C         14.91654       -3.98278       -0.56386
C         13.79337       -3.11580       -0.77627
S         13.34529       -1.62291        0.02619
C         15.79657       -3.82362        0.66294
C         17.13777       -4.11817        0.91261
C         17.59886       -3.73052        2.21831
C         16.61533       -3.12055        2.95802
S         15.11577       -3.27032        2.16774
C         16.69784       -2.44820        4.29206
Cl        19.21436       -3.97469        2.73556
C         16.23705       -6.01725       -1.62878
C         16.17277       -6.88024       -2.71066
S         14.71313       -6.59434       -3.51753
C         17.08030       -7.99124       -3.12120
C         17.74916       -8.77174       -2.15325
C         17.57791       -8.73683       -0.68901
O         16.58356       -8.35179       -0.10652
S         18.91570       -9.48920        0.13741
C         19.50830      -10.16204       -1.35536
O         20.55983      -10.76612       -1.44860
C         18.65931       -9.78397       -2.49665
C         18.79179      -10.25090       -3.80713
C         18.18609       -9.45207       -4.78665
C         17.39467       -8.32632       -4.46632
C         17.05354       -7.57924       -5.69952
O         16.58713       -6.45852       -5.74545
S         17.56231       -8.40926       -7.15236
C         18.29753       -9.68731       -6.23704
O         18.82364      -10.66108       -6.74463
C         19.56539      -11.46150       -4.13867
C         19.22199      -12.76340       -4.15028
C         20.37073      -13.73386       -4.29218
O         21.45843      -13.54130       -4.79269
C         19.93687      -14.95829       -3.60432
C         20.76324      -15.99849       -3.20901
C         20.23573      -16.96530       -2.34703
C         18.88050      -16.86056       -1.91374
C         18.38641      -17.80235       -1.00140
C         19.20750      -18.82417       -0.53587
C         20.52295      -18.94116       -0.96268
C         21.03802      -18.01303       -1.86742
F         18.72043      -19.70712        0.34543
C         18.06327      -15.80518       -2.37230
C         18.59085      -14.85017       -3.23126
C         18.04487      -13.57933       -3.79754
C         16.74149      -13.38157       -4.11039
C         16.28715      -12.22580       -4.79779
N         15.88272      -11.26004       -5.29895
C         15.71366      -14.32272       -3.79492
N         14.86372      -15.06316       -3.51646
H          8.77590        9.24902       -1.12769
H          5.88411       11.44591        1.10663
H          5.07762        9.37152        2.20261
H          9.12913        6.91517       -0.68165
H          5.24865        6.83061        2.47416
H          6.93947        1.78394        2.04611
H         10.82375       -2.59114       -2.25280
H         12.27381       -6.52614       -4.62829
H         10.37977       -3.32006       -8.04029
H         10.09740       -2.01640       -6.88052
H          9.00555       -3.40653       -6.92046
H         17.81417       -4.56027        0.19727
H         17.03374       -3.14622        5.06505
H         15.73231       -2.03804        4.61015
H         17.40451       -1.61015        4.25690
H         17.02812       -6.09950       -0.90272
H         20.61309      -11.22514       -4.35241
H         21.80663      -16.01023       -3.51414
H         17.36631      -17.75029       -0.63043
H         21.14155      -19.74829       -0.58268
H         22.07554      -18.10737       -2.18338
H         17.04719      -15.73208       -1.99474
