98

C         -3.87996       -1.54575        0.53163
C         -3.69302       -1.97465        1.80081
C         -4.77829       -2.17991        2.69652
N         -5.68241       -2.34683        3.40519
C         -2.38511       -2.16074        2.34146
N         -1.31851       -2.28808        2.78102
C         -5.14329       -1.06023       -0.06543
C         -4.81326       -0.08033       -1.01960
C         -5.76837        0.60441       -1.75022
C         -7.10608        0.24568       -1.55891
C         -7.44981       -0.79415       -0.66675
C         -6.46465       -1.44804        0.09049
Cl        -9.07872       -1.34636       -0.48581
Cl        -8.29693        1.08872       -2.48435
C         -3.34432       -0.04358       -1.22265
O         -2.72788        0.70216       -1.95093
C         -2.82847       -1.21428       -0.43598
C         -1.80475       -1.92693       -0.94216
C         -1.56291       -3.31095       -0.65029
C         -0.34552       -4.00459       -0.61347
C         -0.53232       -5.37653       -0.30356
C         -1.86051       -5.66882       -0.10844
S         -2.89994       -4.43243       -0.45088
C         -1.99767       -7.01722        0.27601
C         -0.75552       -7.60677        0.28256
C          0.24787       -6.60462       -0.11374
C          1.57380       -6.77959       -0.31223
C          2.18022       -8.05532       -0.15492
N          2.67036       -9.09997       -0.03679
C          2.41318       -5.71205       -0.73754
N          3.09498       -4.83997       -1.08889
C         -0.84379       -8.97074        0.65634
C         -2.16349       -9.34632        0.94842
S         -3.25532       -7.99656        0.74204
C         -2.69645      -10.61879        1.34923
C         -3.11713      -11.45953        0.38344
C         -3.68840      -12.74554        0.69183
C         -3.87218      -13.22477        2.06818
C         -3.51216      -12.53423        3.14982
S         -2.76779      -10.95356        3.07342
C         -4.46404      -14.50457        1.97132
C         -4.65105      -14.82510        0.64762
C         -5.21577      -16.09487        0.44789
C         -5.44615      -16.70201        1.67461
S         -4.96549      -15.70703        3.01805
C         -4.16456      -13.71774       -0.13797
C         -4.15294      -13.66732       -1.57577
C         -5.25874      -13.74665       -2.33157
C         -5.18297      -13.68082       -3.75184
C         -4.24425      -13.04365       -4.56785
C         -4.52551      -13.24454       -5.93231
C         -5.66125      -14.00191       -6.11198
S         -6.40731      -14.47720       -4.70678
C         -5.88332      -14.16559       -7.49682
C         -4.87888      -13.52048       -8.18552
C         -3.97370      -12.87770       -7.23478
C         -2.90711      -12.09784       -7.49847
C         -2.52198      -11.78582       -8.83046
N         -2.21736      -11.52509       -9.92099
C         -2.12483      -11.52422       -6.45823
N         -1.49296      -11.05507       -5.60505
C         -5.02275      -13.66650       -9.57938
C         -6.18606      -14.36852       -9.89118
S         -7.03060      -14.88705       -8.45936
C         -6.76566      -14.59539      -11.16931
C         -6.49141      -15.64988      -11.95366
C         -6.95164      -15.92905      -13.33784
C         -8.11382      -15.52463      -13.90656
C         -8.51288      -15.93023      -15.21121
N         -8.83177      -16.26248      -16.27501
C         -9.06931      -14.71307      -13.23016
N         -9.83941      -14.04498      -12.67742
C         -5.97289      -16.89760      -13.92285
C         -5.15475      -17.37243      -12.88633
C         -5.47360      -16.70309      -11.61809
O         -4.96998      -16.97452      -10.54956
C         -4.13945      -18.29974      -13.06935
C         -3.91122      -18.76739      -14.36154
C         -4.69507      -18.29300      -15.43092
C         -5.72430      -17.35456      -15.21320
Cl        -4.43147      -18.82011      -17.05750
Cl        -2.63382      -19.90791      -14.58383
H         -5.47752        1.36023       -2.47375
H         -6.74765       -2.26731        0.74631
H         -1.18705       -1.48152       -1.72320
H          0.60462       -3.50904       -0.78359
H         -0.02035       -9.67207        0.72291
H         -3.05438      -11.17878       -0.66369
H         -3.66975      -12.94940        4.14095
H         -5.44004      -16.55542       -0.50617
H         -5.86751      -17.68142        1.85989
H         -3.16555      -13.56171       -2.01912
H         -6.23508      -13.86728       -1.86560
H         -3.41763      -12.47296       -4.16329
H         -4.36234      -13.26889      -10.33974
H         -7.42117      -13.79661      -11.49782
H         -3.53520      -18.62786      -12.22810
H         -6.28312      -17.00199      -16.07520
