92

C          1.86234       -1.11267       -3.71823
C          3.10229       -0.75602       -3.20220
C          2.99680        0.42375       -2.43539
C          1.70449        0.90163       -2.41471
S          0.60384       -0.01443       -3.26040
C          1.67612        2.10566       -1.68193
C          2.94539        2.39297       -1.23263
C          3.85664        1.32767       -1.66791
C          5.17531        1.20082       -1.42433
C          5.88362        2.15419       -0.64557
N          6.45842        2.93044       -0.00280
C          5.92809        0.10023       -1.92397
N          6.53955       -0.79899       -2.32915
C          2.97933        3.62850       -0.53905
C          1.71971        4.23949       -0.52506
S          0.52380        3.23151       -1.29632
C          1.36248        5.53268        0.03246
C          1.96785        6.19625        1.10350
C          1.35675        7.45124        1.34494
C          0.32050        7.68886        0.46950
S          0.06096        6.48364       -0.63954
C         -0.24958        8.94897        0.75890
C          0.43691        9.51809        1.80770
C          1.48437        8.59499        2.25362
C          2.34311        8.75234        3.27687
C          2.33637        9.92287        4.08853
N          2.32818       10.87000        4.75306
C          3.28746        7.74766        3.62221
N          4.05040        6.92106        3.90937
C         -0.07127       10.79680        2.13158
C         -1.14565       11.13776        1.30982
S         -1.51463        9.85990        0.18007
C         -1.95350       12.31344        1.30612
C         -1.66240       13.40618        0.58258
C         -2.54226       14.54719        0.43530
C         -2.22300       15.33494       -0.60521
C         -1.06986       14.85681       -1.35046
S         -0.24257       13.60950       -0.41067
C         -0.74971       15.15084       -2.62498
C         -1.48151       16.00027       -3.54745
C         -1.24224       15.70514       -4.83767
C         -0.31646       14.59880       -5.00243
S          0.54064       14.34058       -3.50313
C         -0.20004       13.86465       -6.12292
C          0.58887       12.67418       -6.24394
C          0.87357       11.66848       -5.30987
C          1.74755       10.69410       -5.82677
C          2.06504       10.96056       -7.13604
S          1.30664       12.28596       -7.78945
C          2.96635        9.97650       -7.58697
C          3.20237        9.07713       -6.57257
C          2.43250        9.47371       -5.39470
C          2.35448        8.85279       -4.20144
C          3.05568        7.64465       -3.93332
N          3.62520        6.65604       -3.72161
C          1.55384        9.37045       -3.15058
N          0.90467        9.80275       -2.29442
C          4.08921        8.05646       -6.98031
C          4.48758        8.23100       -8.30999
S          3.79044        9.67805       -8.98932
C          5.32935        7.34528       -9.09461
C          5.89506        6.13614       -8.67799
C          6.55979        5.48610       -9.74117
C          6.50917        6.22936      -10.89754
S          5.71588        7.67526      -10.76353
C          7.14573        5.51656      -11.93259
C          7.60279        4.31724      -11.42973
C          7.26616        4.23213      -10.00717
C          7.52981        3.22716       -9.14996
C          8.22210        2.05699       -9.56388
N          8.78463        1.10108       -9.90590
C          7.12143        3.27833       -7.78906
N          6.78004        3.32165       -6.68057
C          8.22524        3.54047      -12.42893
C          8.19683        4.20517      -13.64922
S          7.42807        5.75393      -13.55352
H          1.62583       -1.95924       -4.34896
H          3.99850       -1.33014       -3.40206
H          3.86111        4.09203       -0.11159
H          2.79217        5.77022        1.66258
H          0.29342       11.46137        2.90474
H         -2.88969       12.25991        1.85363
H         -3.40456       14.70516        1.06871
H         -2.80113       16.19966       -0.89874
H         -2.18525       16.75491       -3.22732
H         -1.72687       16.19240       -5.67250
H         -0.77482       14.15958       -6.99906
H          0.47789       11.68090       -4.30266
H          4.41376        7.22016       -6.37303
H          5.78136        5.75085       -7.67232
H          8.66575        2.55774      -12.31598
H          8.58328        3.86337      -14.60004
