93

C         -0.13056        1.65942        0.10589
C         -1.43096        1.66125        0.47832
C         -2.34038        0.65525        0.04513
N         -3.07671       -0.16138       -0.32547
C         -1.93724        2.61458        1.41118
N         -2.34559        3.37023        2.19128
C          0.57682        0.56743       -0.58864
C          1.89180        0.53468       -0.09812
C          2.81557       -0.40855       -0.50837
C          2.43526       -1.29756       -1.52552
C          1.13862       -1.19911       -2.11414
C          0.20312       -0.27443       -1.62087
C          0.81650       -2.01798       -3.20482
C          1.73745       -2.94199       -3.69639
C          2.98388       -3.07389       -3.09017
C          3.33168       -2.25786       -2.01228
C          2.14948        1.73898        0.72967
O          3.17352        2.02751        1.30898
C          0.91159        2.57575        0.56133
C          1.04159        3.91111        0.47186
C          0.11203        4.75698       -0.22011
C         -0.68914        4.49293       -1.32900
F         -0.75540        3.34360       -1.94498
C         -1.41119        5.62060       -1.76314
C         -1.12033        6.69684       -0.98161
S         -0.01574        6.43828        0.26829
C         -1.74747        7.87356       -1.32732
C         -2.57987        7.81751       -2.40830
S         -2.52857        6.18250       -2.94925
C         -3.14111        9.08818       -2.66042
F         -3.97588        9.31562       -3.63926
C         -2.70788       10.04151       -1.74977
S         -1.59454        9.37226       -0.57637
C         -3.05920       11.44872       -1.69871
C         -3.13013       12.26528       -0.57792
F         -2.90376       11.87160        0.64622
C         -3.49141       13.59136       -0.90469
C         -3.67461       13.70971       -2.25086
S         -3.43710       12.31644       -3.16862
C         -4.02713       14.95963       -2.70538
C         -4.14845       15.93608       -1.75946
S         -3.80014       15.16143       -0.25693
C         -4.49615       17.16471       -2.36719
F         -4.67039       18.27348       -1.70066
C         -4.59460       17.05392       -3.74643
S         -4.31907       15.41536       -4.29849
C         -4.93106       18.10219       -4.69039
C         -5.76190       19.19220       -4.47239
F         -6.36873       19.44973       -3.34530
C         -5.99815       19.91834       -5.66312
C         -5.25402       19.40075       -6.68409
S         -4.26520       18.09394       -6.30786
C         -5.47551       19.93809       -7.93199
C         -6.45719       20.87838       -8.00194
S         -6.93262       21.18355       -6.36984
C         -6.77425       21.14594       -9.34964
F         -7.80882       21.86795       -9.68761
C         -5.99082       20.41562      -10.24269
S         -4.80097       19.43962       -9.39481
C         -6.08034       20.24776      -11.66637
C         -6.52852       21.18189      -12.52063
C         -7.02041       21.01896      -13.90772
C         -6.46170       20.28049      -14.89620
C         -6.94507       20.30350      -16.23396
N         -7.34419       20.32952      -17.32624
C         -5.30011       19.48308      -14.67133
N         -4.36537       18.82646      -14.47219
C         -8.15891       21.97658      -14.03895
C         -8.09832       22.86363      -12.95384
C         -6.93272       22.56283      -12.12041
O         -6.37760       23.31953      -11.35290
C         -9.06694       23.80563      -12.66655
C        -10.16457       23.88837      -13.52303
C        -10.23477       23.04703      -14.67208
C         -9.22896       22.08282      -14.91566
C        -11.33187       23.18371      -15.53562
C        -12.35145       24.09854      -15.25995
C        -12.29666       24.88458      -14.11247
C        -11.20682       24.78344      -13.25003
H          3.81885       -0.40900       -0.09244
H         -0.77704       -0.19681       -2.08371
H         -0.15265       -1.93450       -3.69383
H          1.48014       -3.56050       -4.55258
H          3.69427       -3.80585       -3.46684
H          4.31714       -2.37172       -1.56522
H          1.97355        4.36882        0.80385
H         -5.88065       19.23943      -12.02348
H         -8.97839       24.41986      -11.77478
H         -9.33989       21.41746      -15.76681
H        -11.40600       22.57694      -16.43596
H        -13.19453       24.19237      -15.93999
H        -13.10087       25.58122      -13.88918
H        -11.18259       25.40591      -12.35734
