104

C          1.75820        3.24756       -3.14302
C          2.87794        3.59841       -2.47055
C          3.73378        2.62976       -1.87197
N          4.40801        1.82889       -1.37250
C          3.31559        4.95483       -2.41260
N          3.69783        6.05038       -2.39433
C          1.39576        1.88598       -3.57434
C          0.81792        1.98828       -4.85098
C          0.40115        0.88682       -5.57268
C          0.47692       -0.36578       -4.94696
C          0.94623       -0.46737       -3.60181
C          1.43367        0.66494       -2.92899
C          0.89365       -1.70545       -2.94986
C          0.43108       -2.83963       -3.61597
C          0.03341       -2.75408       -4.94761
C          0.05101       -1.52486       -5.60867
C          0.55605        3.41329       -5.16745
O          0.08889        3.86620       -6.18937
C          0.86544        4.13351       -3.88226
C          0.03370        5.12376       -3.51620
C         -0.19854        5.62357       -2.18709
S          0.24792        4.75635       -0.74941
C          0.08353        6.13424        0.27658
C         -0.26771        7.21167       -0.50639
C         -0.87547        6.75866       -1.74762
C         -1.72933        7.57837       -2.51432
C         -2.70652        7.13094       -3.52373
O         -3.41475        7.86463       -4.18861
O         -2.85893        5.79640       -3.57294
C         -1.78034        8.91568       -2.04502
C         -1.02064        9.39756       -0.93757
C         -0.24385        8.55611       -0.12365
O          0.49221        9.03843        0.91773
C          0.28836        6.01590        1.77000
C          1.16220        5.07370        2.28252
O          1.23922        5.16256        3.62657
C          0.38055        6.13756        4.00057
C         -0.33583        6.64432        2.92547
C         -1.45814        7.59871        3.03186
O         -1.74487        8.33980        2.09806
C         -2.27449        7.62290        4.25980
C         -2.39753        6.76487        5.33570
C         -3.44000        7.14920        6.23981
C         -4.13753        8.27645        5.83899
S         -3.37919        8.94721        4.45233
C         -5.26242        8.91892        6.51534
S         -5.34592        8.80000        8.24703
C         -6.68487        9.88143        8.39436
C         -6.90189       10.47692        7.16145
C         -6.33099        9.68580        6.06325
C         -6.78814        9.85394        4.73262
C         -6.57708        8.96525        3.58418
O         -6.67178        9.29645        2.41611
O         -6.42215        7.67928        3.93687
C         -7.71977       10.91692        4.57107
C         -8.16242       11.76174        5.62602
C         -7.77433       11.56716        6.95916
O         -8.24584       12.36915        7.96299
C         -7.29947       10.00327        9.68643
C         -8.63171       10.01197        9.91298
C         -9.40751       10.24228       11.17134
C         -8.98234       10.08448       12.45288
C         -9.81072       10.32329       13.58425
N        -10.48092       10.51480       14.51728
C         -7.66143        9.66356       12.77624
N         -6.58498        9.34062       13.05623
C        -10.78998       10.65336       10.75037
C        -10.85061       10.61450        9.35601
C         -9.65788        9.96717        8.81493
O         -9.61595        9.42601        7.73013
C        -11.89966       11.12729        8.60583
C        -13.00357       11.64433        9.28607
C        -13.05453       11.55051       10.70241
C        -11.93554       11.06496       11.42350
C        -14.22382       11.96620       11.36039
C        -15.28863       12.52429       10.64845
C        -15.19792       12.68732        9.26943
C        -14.06566       12.24054        8.58955
H         -0.02997        1.01132       -6.56160
H          1.78491        0.58226       -1.90403
H          1.20005       -1.79709       -1.90938
H          0.38543       -3.79205       -3.09401
H         -0.30498       -3.64527       -5.46999
H         -0.28089       -1.48072       -6.64396
H         -0.56940        5.56015       -4.31096
H         -3.57762        5.65714       -4.22546
H         -2.44135        9.62117       -2.55207
H         -1.08835       10.45644       -0.69423
H         -0.05635        9.73445        1.32147
H          1.80789        4.32872        1.83604
H          0.37355        6.32709        5.06486
H         -1.81426        5.86562        5.48363
H         -3.68185        6.58626        7.13373
H         -6.37124        7.20674        3.08024
H         -8.15261       11.08088        3.58121
H         -8.87694       12.54412        5.37907
H         -8.87670       12.99837        7.57533
H         -6.59436       10.08120       10.50667
H        -11.84233       11.12666        7.52134
H        -12.00925       11.04602       12.50530
H        -14.31823       11.85987       12.43943
H        -16.18635       12.84137       11.17393
H        -16.01459       13.15029        8.72062
H        -14.01919       12.36590        7.50937
