95

C         -4.76154       -1.61410        8.40016
C         -5.05222       -2.55540        9.39259
C         -4.79247       -3.91403        9.18841
C         -4.21351       -4.35530        7.99755
C         -3.86859       -3.41771        7.03023
C         -4.16615       -2.03858        7.21697
C         -3.79859       -1.29318        5.96366
C         -3.59522        0.03844        5.83140
C         -3.77344        0.95827        6.90275
N         -3.92249        1.71473        7.76962
C         -3.11503        0.61212        4.61844
N         -2.73523        1.06685        3.62207
C         -3.56674       -2.35396        4.93294
C         -3.21663       -3.58004        5.69671
C         -2.29863       -4.51983        5.36442
C         -1.51252       -4.41636        4.17810
N         -0.86640       -4.33370        3.21742
C         -2.01444       -5.64250        6.19140
N         -1.80230       -6.57093        6.85506
C         -3.97011       -2.24559        3.64576
C         -4.12931       -3.29561        2.68312
C         -4.01588       -3.18840        1.28816
C         -4.32352       -4.40588        0.64099
C         -4.58317       -5.39604        1.55529
S         -4.69887       -4.88846        3.12317
C         -4.81228       -6.60264        0.87502
C         -4.75596       -6.37626       -0.47733
C         -4.46968       -4.95847       -0.70903
C         -4.44584       -4.29927       -1.88259
C         -4.69670       -4.96185       -3.11487
N         -4.91789       -5.50530       -4.11581
C         -4.23379       -2.89552       -1.93965
N         -4.07636       -1.74809       -1.98192
C         -5.02708       -7.55714       -1.20412
C         -5.28143       -8.64451       -0.35588
S         -5.10444       -8.16372        1.32162
C         -5.62261       -9.98525       -0.67887
C         -5.29929      -10.63153       -1.82033
C         -5.73691      -12.02971       -1.89656
C         -6.42840      -12.48492       -0.82968
Si        -6.61285      -11.12255        0.44675
C         -6.91775      -13.80712       -0.66475
C         -6.39124      -15.01370       -1.14538
C         -7.15969      -16.12128       -0.72602
C         -8.24701      -15.72976        0.01869
S         -8.38484      -14.10001        0.24983
C         -8.94030      -16.87085        0.46584
C         -8.26188      -17.98728        0.04225
C         -7.14697      -17.57993       -0.81511
C         -6.36630      -18.35986       -1.58796
C         -6.52673      -19.77208       -1.60887
N         -6.68708      -20.92131       -1.59536
C         -5.40186      -17.80451       -2.47237
N         -4.62862      -17.34268       -3.20408
C         -8.79727      -19.15437        0.62017
C         -9.95508      -18.88709        1.36357
S        -10.30165      -17.17229        1.36492
C        -10.80166      -19.74755        2.14270
C        -11.04765      -21.04571        1.87672
C        -11.53454      -22.04624        2.88640
C        -12.50004      -21.87950        3.82324
C        -13.21128      -20.65334        3.96614
N        -13.77737      -19.64797        4.09015
C        -12.91771      -22.92023        4.70774
N        -13.25794      -23.75298        5.43399
C        -10.76983      -23.30743        2.57271
C        -10.07743      -23.12984        1.34042
C         -9.16446      -24.07423        0.88694
C         -9.00585      -25.25333        1.61191
C         -9.73596      -25.46999        2.78453
C        -10.60297      -24.49076        3.28308
C        -10.50099      -21.83311        0.74829
C        -10.59940      -21.54844       -0.57553
C        -10.02841      -22.37300       -1.58432
N         -9.54426      -23.02644       -2.41285
C        -11.33335      -20.42036       -1.05201
N        -11.94493      -19.51664       -1.44628
H         -5.03018       -0.58109        8.59091
H         -5.50318       -2.23028       10.32899
H         -5.05010       -4.63434        9.96293
H         -4.06498       -5.42176        7.86118
H         -4.29888       -1.28001        3.26739
H         -3.73286       -2.26269        0.79922
H         -5.07644       -7.64365       -2.28280
H         -4.73040      -10.20029       -2.63592
H         -5.49279      -12.62065       -2.77195
H         -5.96751      -11.39664        1.75777
H         -8.01854      -10.68494        0.65440
H         -5.48125      -15.05334       -1.73325
H         -8.36665      -20.14274        0.53378
H        -11.16324      -19.29437        3.06295
H         -8.56052      -23.92404       -0.00247
H         -8.30749      -26.01081        1.26105
H         -9.61005      -26.40549        3.32727
H        -11.10261      -24.69804        4.22223
