89

C          0.26736       16.93153        6.83253
C         -0.80363       17.03351        5.95333
C         -0.88666       15.87997        5.14213
C          0.11336       14.97499        5.43249
S          1.14866       15.45113        6.64546
C         -0.02758       13.84713        4.59142
C         -1.11979       14.03404        3.77225
C         -1.73742       15.33226        4.08369
C         -2.84379       15.88820        3.55029
C         -3.62480       15.20188        2.58065
N         -4.27425       14.63308        1.80693
C         -3.30773       17.17765        3.94505
N         -3.68334       18.22834        4.26113
C         -1.28923       12.94286        2.88329
C         -0.31429       11.95353        3.07859
S          0.78387       12.41327        4.36227
C         -0.12238       10.69937        2.39833
C         -0.72870        9.60161        2.89369
C         -0.59812        8.30643        2.26950
C          0.16040        8.10036        1.02554
C          0.83226        9.06470        0.39663
S          0.89336       10.71831        0.96243
C          0.02711        6.73272        0.69253
C         -0.74394        6.10543        1.64095
C         -0.91805        4.73092        1.40272
C         -0.27815        4.36819        0.22815
S          0.54163        5.70422       -0.52237
C         -1.13322        7.09889        2.61948
C         -1.92952        6.83295        3.79480
C         -2.86924        5.87763        3.85505
C         -3.62803        5.59164        5.07155
C         -4.86928        6.19099        5.33579
O         -5.36700        7.06560        4.40273
C         -6.32290        8.00797        4.88409
C         -5.53482        5.86423        6.51602
C         -4.95410        4.99468        7.45020
C         -3.71604        4.39062        7.18432
C         -3.05960        4.69538        5.99229
O         -3.17823        3.59539        8.16269
C         -2.38607        2.50001        7.71572
C         -5.67216        4.79179        8.70826
C         -6.59103        3.82995        8.88135
C         -7.28256        3.70057       10.14211
C         -8.21350        2.77808       10.43219
C         -8.82412        2.76300       11.74860
C         -9.37472        1.72858       12.40129
C        -10.05556        1.71265       13.71977
C         -9.80728        2.52931       14.77664
C        -10.43637        2.35172       16.04536
N        -10.94501        2.21546       17.07827
C         -8.84772        3.58651       14.73235
N         -8.07031        4.45286       14.70642
C        -10.91015        0.48192       13.73422
C        -10.53506       -0.31713       12.65103
C         -9.51317        0.34881       11.83113
O         -8.92397       -0.15796       10.89999
C        -11.09184       -1.55748       12.36650
C        -12.10684       -2.03515       13.22142
C        -12.52124       -1.22975       14.29134
C        -11.94179        0.04111       14.56067
S        -13.78654       -1.99854       15.18391
C        -13.76070       -3.38223       14.18750
C        -12.83151       -3.27268       13.18144
H          0.58121       17.64868        7.58028
H         -1.45806       17.89716        5.94021
H         -2.05745       12.84905        2.12465
H         -1.35504        9.66575        3.77780
H          1.38474        8.84355       -0.51191
H         -1.47421        4.03506        2.01708
H         -0.24860        3.38578       -0.22496
H         -1.74051        7.46095        4.66267
H         -3.12377        5.25606        3.00433
H         -6.47597        8.76301        4.10782
H         -5.96016        8.52255        5.78164
H         -7.28873        7.52736        5.07297
H         -6.51001        6.28295        6.74280
H         -2.08163        4.28041        5.77022
H         -2.03230        1.96400        8.60190
H         -1.49727        2.82408        7.16725
H         -2.98521        1.80648        7.11640
H         -5.42195        5.50029        9.49369
H         -6.82127        3.13154        8.08020
H         -6.97729        4.40576       10.91537
H         -8.52297        2.04117        9.69426
H         -8.82809        3.74831       12.20726
H        -10.75577       -2.13296       11.50880
H        -12.32514        0.61936       15.39463
H        -14.42710       -4.21267       14.38038
H        -12.66528       -4.04813       12.44274
