97

C         -4.17922       -2.05445       -1.45165
C         -2.92815       -2.45549       -1.00147
C         -2.16262       -1.33954       -0.60988
C         -2.85354       -0.15006       -0.77361
S         -4.39262       -0.33363       -1.38680
C         -2.03972        0.92243       -0.35294
C         -0.83426        0.42133        0.08368
C         -0.83874       -1.03674       -0.06753
C          0.15653       -1.91560        0.21562
C          1.39905       -1.48570        0.72552
N          2.42622       -1.13251        1.15707
C          0.00680       -3.31184       -0.00493
N         -0.11731       -4.46192       -0.18136
C          0.01675        1.45249        0.54541
C         -0.57972        2.71363        0.42787
S         -2.18538        2.57562       -0.25760
C         -0.06955        4.00743        0.79795
C         -0.29566        4.43790        2.05412
C          0.14228        5.72263        2.54861
C          1.01410        6.57593        1.70900
C          1.36374        6.30520        0.44989
S          0.82870        4.88648       -0.41603
C          1.34394        7.70535        2.48114
C          0.74148        7.61681        3.71447
C          1.11317        8.67567        4.56934
C          1.92446        9.57853        3.89109
S          2.26154        9.08364        2.26422
C         -0.06156        6.39118        3.73577
C         -0.92000        6.02491        4.86995
C         -1.83655        5.03859        4.90837
C         -2.69355        4.62364        6.03893
C         -4.07244        4.94436        6.19457
O         -4.54142        5.79393        5.20443
C         -5.91545        5.78508        4.79796
C         -4.85345        4.51208        7.34028
O         -6.09434        5.09748        7.37296
C         -7.16266        4.51921        8.07360
C         -4.32533        3.69571        8.39838
C         -2.98331        3.24419        8.18278
C         -2.16187        3.71197        6.99119
N         -0.93130        3.16930        6.96830
S         -0.78672        2.21976        8.31142
N         -2.28704        2.40491        8.97384
C         -4.93166        3.43857        9.73658
C         -6.10082        2.77556       10.14751
C         -6.39815        3.01205       11.51130
C         -5.35700        3.65999       12.12295
S         -4.09973        4.09462       11.13523
C         -5.63674        3.76011       13.49454
C         -6.84680        3.17217       13.76970
C         -7.43994        2.71980       12.50888
C         -8.67010        2.20814       12.30010
C         -9.55232        1.90810       13.37625
N        -10.27106        1.63559       14.24761
C         -9.14851        1.95713       10.98550
N         -9.53219        1.78984        9.89881
C         -7.11435        3.17709       15.16165
C         -6.03568        3.71098       15.88893
S         -4.85823        4.41922       14.78347
C         -5.78189        3.77800       17.30787
C         -4.49809        3.74990       17.72247
C         -4.10358        3.88591       19.09155
C         -5.10437        4.00718       20.15755
C         -6.42333        4.00876       19.96376
S         -7.16310        3.87832       18.39064
C         -4.38498        4.16394       21.35559
C         -3.03773        4.16359       21.08687
C         -2.24472        4.33989       22.23143
C         -3.05663        4.45210       23.35145
S         -4.74820        4.35880       22.97258
C         -2.86366        3.97858       19.66099
C         -1.55313        4.01756       19.03934
C         -1.12702        3.36280       17.95260
H         -4.98465       -2.67940       -1.81619
H         -2.63223       -3.49719       -0.97461
H          1.01720        1.33095        0.95181
H         -0.79183        3.76743        2.73721
H          1.99102        6.98880       -0.10158
H          0.83005        8.80249        5.60465
H          2.35258       10.50436        4.25964
H         -0.82004        6.66861        5.74543
H         -2.01852        4.39997        4.05287
H         -6.15398        4.86931        4.24033
H         -6.06461        6.63809        4.13561
H         -6.63637        5.95192        5.58399
H         -7.22185        3.44192        7.90147
H         -8.10531        4.93639        7.71011
H         -7.08169        4.82388        9.11858
H         -6.75394        2.24045        9.47252
H         -7.98924        2.75444       15.64444
H         -3.68420        3.64393       17.01718
H         -7.09983        4.11222       20.80636
H         -1.16388        4.37840       22.26243
H         -2.75310        4.58533       24.38014
H         -0.82359        4.63905       19.55879
H         -1.74833        2.69302       17.36962
H         -0.09835        3.47915       17.61744
