80

C         -7.66899        3.94095       -5.69170
C         -8.07958        4.73240       -4.60822
C         -7.52002        4.61156       -3.30886
C         -6.49607        3.68910       -2.96824
C         -6.06789        2.88362       -4.05415
C         -6.65260        3.01615       -5.39020
N         -6.05753        2.13773       -6.20477
O         -5.12752        1.47376       -5.42724
N         -5.12692        1.92889       -4.12209
C         -5.89686        3.57159       -1.63269
C         -5.33761        2.46426       -0.98276
C         -4.83008        2.81213        0.29333
C         -5.01440        4.14974        0.55665
S         -5.79126        4.99894       -0.63424
C         -4.43000        4.46538        1.80093
C         -3.87628        3.32559        2.33715
C         -4.11966        2.19998        1.42201
C         -3.77377        0.90615        1.58181
C         -3.08726        0.45908        2.74590
N         -2.53146        0.09962        3.69724
C         -4.08631       -0.08189        0.60797
N         -4.34356       -0.89691       -0.18000
C         -3.22376        3.60290        3.56402
C         -3.29649        4.96308        3.89475
S         -4.21336        5.84764        2.69638
C         -2.73561        5.67610        5.00838
C         -3.47153        5.79629        6.13108
C         -2.99681        6.54098        7.27091
C         -1.67081        7.16967        7.31398
C         -0.80220        7.14536        6.30421
S         -1.12863        6.35586        4.78121
C         -1.55518        7.77913        8.58300
C         -2.71497        7.58353        9.29426
C         -2.68095        8.12956       10.58733
C         -1.45641        8.74781       10.80167
S         -0.39730        8.63815        9.42705
C         -3.60777        6.81957        8.45831
C         -4.92124        6.37719        8.83738
C         -5.93820        7.19722        9.14347
C         -7.22014        6.67854        9.49328
C         -7.65376        5.35321        9.61405
C         -9.01094        5.27563        9.97489
C         -9.56177        6.52730       10.11139
S         -8.52087        7.79007        9.83754
C        -10.92361        6.38688       10.43975
C        -11.23463        5.04842       10.51386
C        -10.03239        4.26013       10.23471
C         -9.89272        2.91985       10.22072
C         -8.64713        2.29982        9.92794
N         -7.62376        1.80312        9.68656
C        -10.98446        2.05222       10.50541
N        -11.86833        1.34074       10.74215
C        -12.60133        4.85455       10.80991
C        -13.27348        6.07461       10.94284
S        -12.18873        7.41942       10.71144
C        -14.68890        6.34448       11.20814
C        -15.17386        7.48532       11.89758
C        -16.55054        7.74201       12.12896
C        -17.57071        6.88004       11.69661
C        -17.12228        5.73721       11.00975
C        -15.70704        5.46453       10.76312
N        -15.63329        4.31346       10.07673
O        -16.93309        3.87467        9.91295
N        -17.84541        4.74445       10.47990
H         -8.09700        4.03390       -6.68169
H         -8.86305        5.47447       -4.76843
H         -7.91835        5.27622       -2.54069
H         -5.29493        1.48167       -1.44025
H         -2.69171        2.88994        4.18243
H         -4.45744        5.34676        6.20183
H          0.15980        7.63973        6.39941
H         -3.47001        8.08036       11.32711
H         -1.11693        9.25592       11.69459
H         -5.03846        5.29768        8.83202
H         -5.79835        8.27728        9.10969
H         -7.00029        4.50983        9.43613
H        -13.10079        3.89781       10.91250
H        -14.46478        8.21943       12.28365
H        -16.82524        8.65060       12.66652
H        -18.62003        7.07719       11.87414
