99

C          5.53081       -0.75040        5.53809
S          4.13787       -1.46327        6.26157
C          3.94562       -2.62778        4.98090
C          4.94103       -2.43425        4.05639
C          5.81022       -1.38776        4.36704
C          6.77714       -1.27996        3.31798
O          7.68683       -0.47269        3.24161
O          6.48649       -2.25804        2.38724
C          5.38167       -2.98273        2.80125
O          4.89215       -3.91376        2.18471
C          2.84984       -3.52786        5.03250
C          2.99043       -4.74987        5.57024
C          1.91092       -5.71357        5.68058
C          1.41592       -6.21986        6.84135
N          1.87178       -5.86418        8.16535
O          1.72619       -6.72089        9.05648
O          2.35485       -4.74000        8.35542
C          0.35304       -7.16354        6.61840
C          0.17426       -7.29882        5.29880
C          1.16794       -6.46968        4.60590
C          1.36062       -6.46600        3.26456
C          2.22250       -5.54226        2.54242
C          2.08145       -5.74946        1.22835
C          1.17806       -6.85738        1.04040
N          0.88880       -7.38985       -0.27789
O          1.47385       -6.86045       -1.23372
O          0.07212       -8.30860       -0.39681
C          0.74370       -7.35271        2.22412
C         -0.02718       -8.56223        2.40669
C          0.42595       -9.63814        3.07254
C         -0.33262      -10.84632        3.22926
N         -0.76250      -11.63881        2.16008
C         -0.47071      -11.43966        0.75607
C          0.84406      -12.06729        0.32569
C         -1.46685      -12.77184        2.60277
O         -1.95721      -13.68508        1.97233
C         -1.44924      -12.60388        4.06231
C         -0.72677      -11.40419        4.38006
C         -0.70706      -11.28083        5.85417
O         -0.21029      -10.38677        6.50804
N         -1.38346      -12.44355        6.27896
C         -1.56630      -12.79410        7.67734
C         -2.84844      -12.23633        8.27335
C         -1.83303      -13.18793        5.19402
C         -2.52890      -14.42507        5.32346
C         -3.71782      -14.66714        4.75187
C         -4.38161      -15.97572        4.84110
C         -3.61402      -17.13513        4.85658
N         -4.12054      -18.37049        4.91549
C         -5.47098      -18.46378        4.95105
C         -6.35831      -17.37785        4.92821
C         -5.77821      -16.09168        4.85390
N         -6.57090      -14.98633        4.80584
C         -7.90851      -15.16936        4.83433
C         -8.47009      -16.42022        4.91379
N         -7.71444      -17.53364        4.95913
C         -5.98440      -19.83635        5.02957
C         -5.31582      -20.90569        4.57033
C         -5.85800      -22.21004        4.66897
S         -5.46424      -23.38681        3.46030
C         -6.46425      -24.63012        4.15782
C         -7.00499      -24.12639        5.31441
C         -6.68076      -22.79855        5.59021
C         -7.32882      -22.43610        6.82004
O         -7.28494      -21.36378        7.40035
O         -8.03874      -23.53844        7.25477
C         -7.86005      -24.58269        6.36679
O         -8.35228      -25.69410        6.48553
C         -6.58699      -25.92552        3.57612
C         -6.47814      -26.14341        2.25812
H          6.04239        0.08070        6.00490
H          1.89789       -3.19866        4.62156
H          3.93858       -5.04845        6.01713
H         -0.21623       -7.65567        7.39499
H         -0.59592       -7.90923        4.86083
H          2.86287       -4.78953        2.94442
H          2.59028       -5.21341        0.44065
H         -1.00848       -8.58142        1.93375
H          1.39494       -9.61890        3.56954
H         -0.47026      -10.37799        0.53641
H         -1.28511      -11.87521        0.16718
H          1.68586      -11.68027        0.90877
H          1.03477      -11.85014       -0.73056
H          0.81817      -13.15426        0.45060
H         -0.71197      -12.40334        8.24020
H         -1.54713      -13.88399        7.78826
H         -2.87526      -11.14478        8.20270
H         -2.91956      -12.51135        9.33144
H         -3.73304      -12.63091        7.76307
H         -2.01659      -15.18045        5.91300
H         -4.24562      -13.89809        4.18936
H         -2.52839      -17.10667        4.81581
H         -8.51743      -14.27351        4.79355
H         -9.54337      -16.56792        4.94355
H         -6.96901      -19.92043        5.47378
H         -4.35315      -20.77663        4.07592
H         -6.80483      -26.76790        4.23130
H         -6.30115      -25.34856        1.53967
H         -6.57615      -27.14504        1.85162
