124

C          5.87279        4.33995       -7.20927
C          4.90957        4.44105       -8.14693
C          5.15429        4.93508       -9.46365
N          5.33700        5.35999      -10.52521
C          3.64009        3.82951       -7.98944
N          2.63951        3.23617       -7.99362
C          7.31051        4.26960       -7.55040
C          7.92480        3.35245       -6.67867
C          9.26173        3.02022       -6.77923
C         10.03396        3.69599       -7.74245
C          9.43415        4.70258       -8.55572
C          8.06822        4.97023       -8.46959
C         10.21816        5.45577       -9.43327
C         11.58163        5.21066       -9.54212
C         12.16685        4.19326       -8.79112
C         11.40132        3.44045       -7.89729
C          6.97685        2.98126       -5.59697
O          7.15842        2.21369       -4.67817
C          5.78151        3.87656       -5.82041
C          5.24866        4.45824       -4.72612
C          4.55674        5.73992       -4.65358
C          5.07407        6.97528       -4.91227
N          6.45608        7.30565       -5.19086
O          6.81451        8.46137       -4.92388
O          7.19540        6.45639       -5.68721
C          4.08024        8.01393       -4.83048
C          2.92333        7.46287       -4.45526
C          3.14479        6.04067       -4.18617
C          2.25373        5.23715       -3.55309
C          2.50998        3.84096       -3.19294
C          1.43185        3.36434       -2.55416
C          0.43511        4.41015       -2.47742
N         -0.86761        4.20109       -1.86358
O         -1.11564        3.05094       -1.47054
O         -1.65013        5.15334       -1.75071
C          0.86504        5.55743       -3.05462
C          0.06743        6.75967       -3.20670
C          0.33275        7.95053       -2.64632
C         -0.47117        9.12284       -2.86749
N         -0.96050        9.91804       -1.83893
C         -0.80807        9.68430       -0.42054
C         -1.95144        8.87006        0.15637
C         -1.72187       11.00058       -2.32931
O         -2.36743       11.82003       -1.70891
C         -1.56839       10.87561       -3.79301
C         -0.81853        9.67534       -4.03594
C         -0.65466        9.52179       -5.48427
O         -0.10765        8.59211       -6.04378
N         -1.24512       10.70175       -5.99716
C         -1.31103       10.99328       -7.42436
C         -0.08924       10.53485       -8.21593
C         -1.82282       11.47036       -4.96424
C         -2.46773       12.74735       -5.17413
C         -3.37922       13.30104       -4.35591
C         -3.97821       14.61890       -4.61253
C         -3.35449       15.81062       -4.23762
C         -2.05063       16.04251       -3.60656
O         -1.19404       15.22475       -3.33897
O         -1.93406       17.39463       -3.41707
C         -3.06372       18.11725       -3.93558
C         -3.92795       17.05055       -4.47386
C         -5.13935       17.16867       -5.12953
C         -5.78288       15.99863       -5.53255
C         -5.22187       14.73046       -5.27047
C         -5.92890       13.56309       -5.80844
C         -6.86339       12.85546       -5.15313
C         -7.48565       11.70204       -5.78063
C         -8.68784       11.16282       -5.52131
C         -9.29029        9.91251       -6.05098
C         -9.09589        9.35305       -7.27626
C         -9.79767        8.21904       -7.72996
N        -10.38311        7.29109       -8.10979
C         -8.17501        9.91557       -8.22929
N         -7.44355       10.36248       -9.00156
C        -10.32525        9.49297       -5.05445
C        -10.52051       10.55391       -4.15847
C         -9.64151       11.68249       -4.48627
O         -9.74367       12.80435       -4.03686
C        -11.40179       10.51172       -3.09133
C        -12.13978        9.34485       -2.89022
C        -11.97612        8.24498       -3.77862
C        -11.05871        8.32767       -4.85461
C        -12.73982        7.08825       -3.55587
C        -13.63356        7.01278       -2.48324
C        -13.77898        8.08943       -1.61329
C        -13.03627        9.25089       -1.81534
H          9.70503        2.30358       -6.09083
H          7.63412        5.75609       -9.07841
H          9.77443        6.25469      -10.02596
H         12.18502        5.81798      -10.21201
H         13.23102        3.99690       -8.89250
H         11.88778        2.66340       -7.31247
H          5.49740        4.04083       -3.74754
H          4.24006        9.04974       -5.09239
H          2.01342        8.02257       -4.38859
H          3.38993        3.25636       -3.39404
H          1.30207        2.36080       -2.17503
H         -0.84201        6.63956       -3.79855
H          1.21851        8.08699       -2.03015
H         -0.78062       10.66016        0.07754
H          0.15332        9.19864       -0.22362
H         -2.91735        9.34157       -0.05216
H         -1.84001        8.78414        1.24152
H         -1.97186        7.86162       -0.26810
H         -1.39980       12.07303       -7.57128
H         -2.21443       10.52208       -7.82697
H          0.83812       10.87087       -7.74018
H         -0.11884       10.93343       -9.23460
H         -0.05370        9.44460       -8.30324
H         -2.15541       13.31429       -6.04557
H         -3.73975       12.80805       -3.45742
H         -2.71907       18.80704       -4.71094
H         -3.54719       18.66107       -3.11878
H         -5.57891       18.13878       -5.34252
H         -6.72383       16.07112       -6.07504
H         -5.65822       13.32741       -6.83687
H         -7.14378       13.10955       -4.13077
H         -6.83069       11.23219       -6.50933
H        -11.49313       11.36783       -2.42848
H        -10.94372        7.45958       -5.49648
H        -12.64980        6.23021       -4.21926
H        -14.21771        6.10905       -2.32663
H        -14.47095        8.02742       -0.77713
H        -13.16260       10.08254       -1.12498
