92

C        -16.49036      -12.03780        0.21302
C        -15.22754      -12.45637       -0.05495
C        -14.75214      -13.75699        0.27362
N        -14.34008      -14.81669        0.52774
C        -14.25842      -11.63055       -0.69265
N        -13.44724      -10.97267       -1.21012
C        -17.57397      -12.83933        0.88233
C        -18.75951      -12.10456        0.83153
C        -19.97936      -12.51923        1.35188
C        -20.01743      -13.75712        2.01645
C        -18.83043      -14.49720        2.12288
C        -17.60219      -14.06607        1.54302
S        -19.09376      -15.93373        3.05248
C        -20.73154      -15.57812        3.26614
C        -21.12048      -14.42156        2.64854
Br       -21.90379      -16.65135        4.25769
C        -18.55536      -10.80309        0.20695
O        -19.43505       -9.97942        0.05627
C        -17.09613      -10.72648       -0.14505
C        -16.57178       -9.57940       -0.60921
C        -17.34550       -8.38552       -0.89493
C        -17.15451       -7.16387       -0.38158
C        -17.96114       -6.02151       -0.73619
C        -17.45156       -4.85860       -0.30904
C        -16.19986       -5.01285        0.41321
S        -15.91643       -6.72387        0.76059
C        -15.27546       -4.05427        0.60709
C        -15.30941       -2.71849        0.03263
C        -14.07733       -2.23678       -0.20226
C        -13.03020       -3.15235        0.20916
S        -13.67712       -4.35961        1.28732
C        -11.78760       -3.16117       -0.29940
C        -10.75716       -4.17127       -0.04633
C         -9.79497       -4.01166        0.99565
C         -8.65342       -5.04933        1.21974
N         -7.86172       -4.68283        2.24436
S         -8.42494       -3.24791        2.83673
N         -9.73076       -2.98264        1.85856
C         -8.52332       -6.23288        0.40171
C         -9.53306       -6.32429       -0.60183
C         -9.65490       -7.36361       -1.49768
S        -10.89941       -7.11540       -2.64567
C        -11.30446       -5.59497       -1.96897
C        -10.57282       -5.32382       -0.83368
C         -7.42088       -7.18073        0.57891
N         -6.20977       -6.70563        0.92206
C         -5.21215       -7.60048        1.05061
C         -5.36332       -8.94441        0.81724
C         -6.62311       -9.33764        0.43155
N         -7.65912       -8.47999        0.32532
C         -6.88575      -10.74289        0.09432
C         -7.84263      -11.11261       -0.77045
C         -8.11005      -12.48934       -1.11140
C         -9.03218      -12.95442       -1.96743
C        -10.04259      -12.31315       -2.81492
C         -9.89707      -11.22364       -3.60164
C        -10.96285      -10.69754       -4.39174
N        -11.83523      -10.27845       -5.01838
C         -8.63140      -10.58479       -3.81040
N         -7.61479      -10.06366       -4.01843
C        -11.19158      -13.27179       -2.86820
C        -10.75674      -14.51799       -2.40764
C         -9.38870      -14.41026       -1.86888
O         -8.73978      -15.30693       -1.37100
C        -11.55042      -15.66263       -2.39714
C        -12.89310      -15.53554       -2.82881
C        -13.35743      -14.26531       -3.20108
C        -12.51592      -13.13078       -3.25724
S        -15.04885      -14.28989       -3.54796
C        -15.11690      -15.96604       -3.37882
C        -13.92993      -16.52249       -2.97996
Br       -16.66970      -16.95380       -3.72350
H        -20.85932      -11.88621        1.27225
H        -16.73013      -14.69719        1.66670
H        -22.13370      -14.03645        2.66006
H        -15.51389       -9.45195       -0.81207
H        -18.16874       -8.52986       -1.59393
H        -18.86726       -6.11152       -1.31904
H        -17.90486       -3.90162       -0.52286
H        -16.21453       -2.22322       -0.28902
H        -13.87936       -1.31027       -0.72365
H        -11.50739       -2.41433       -1.03549
H         -9.07901       -8.27042       -1.56980
H        -12.06606       -4.99822       -2.45110
H         -4.25234       -7.18793        1.34815
H         -4.53397       -9.63274        0.90390
H         -6.24666      -11.48117        0.56779
H         -8.45952      -10.34215       -1.21632
H         -7.54838      -13.21925       -0.52423
H        -11.15271      -16.61152       -2.04746
H        -12.93934      -12.18100       -3.56080
H        -13.78807      -17.58376       -2.81402
