91

C         -0.09643       -3.25451       -1.00602
C          0.44508       -4.20488       -0.20747
C          1.46995       -5.08352       -0.68293
N          2.33408       -5.75070       -1.06795
C          0.13269       -4.29369        1.17455
N         -0.13139       -4.37023        2.30686
C          0.26459       -3.00659       -2.43033
C          0.09808       -1.64370       -2.67034
C          0.26446       -1.05502       -3.91402
C          0.56946       -1.89979       -5.00570
C          0.74914       -3.27300       -4.76832
C          0.61447       -3.84893       -3.47641
S          1.12168       -4.11075       -6.23516
C          0.99067       -2.70103       -7.15223
C          0.71066       -1.59125       -6.40284
Br         1.20656       -2.65678       -9.01242
C         -0.36887       -0.97704       -1.44327
O         -0.20820        0.19065       -1.16663
C         -0.89379       -2.08396       -0.58213
C         -1.97653       -2.02561        0.21895
C         -2.87222       -0.91618        0.49127
C         -3.48647       -0.80190        1.73981
O         -3.36702       -1.66274        2.76797
C         -4.41902       -1.66962        3.73171
S         -4.36377        0.67018        1.85379
C         -4.11612        1.07595        0.21876
O         -4.57829        2.19910       -0.35843
C         -5.81289        2.71750        0.11273
C         -3.32762        0.11993       -0.39993
C         -3.03013        0.28978       -1.79205
C         -3.52500       -0.44833       -2.80080
C         -3.12963       -0.22251       -4.19219
N         -3.40774       -1.21779       -5.04909
C         -2.97333       -1.04901       -6.30945
C         -2.28996        0.06367       -6.73274
C         -2.02048        1.01125       -5.76730
N         -2.43111        0.88702       -4.49596
C         -1.21064        2.18146       -6.12191
C         -0.65446        3.05821       -5.26883
C          0.11306        4.22771       -5.78384
S          0.37476        5.46481       -4.43560
C         -0.48257        6.30645       -5.68048
C         -0.65103        5.29160       -6.54117
C         -1.23750        5.42342       -7.88977
O         -1.33917        6.43505       -8.56933
O         -1.65305        4.19388       -8.28516
C         -2.14530        4.05571       -9.62715
C         -3.57393        4.50217       -9.74504
C         -4.24158        4.64966      -10.89952
C         -3.85354        4.34704      -12.27503
C         -3.55598        3.11429      -12.75391
C         -3.25683        2.86313      -14.12196
N         -2.98733        2.66468      -15.23331
C         -3.75012        1.95907      -11.93760
N         -3.97996        1.02984      -11.28214
C         -4.43821        5.41414      -13.12339
C         -5.48732        5.98745      -12.39089
C         -5.46878        5.50305      -10.99009
O         -6.26514        5.75823      -10.11398
C         -6.40917        6.86026      -12.94632
C         -6.27764        7.15430      -14.32467
C         -5.17376        6.64442      -15.02979
C         -4.20847        5.80052      -14.43458
S         -5.20297        7.14423      -16.68299
C         -6.68797        7.91913      -16.48538
C         -7.14448        7.90085      -15.19468
Br        -7.62181        8.71425      -17.90043
H          0.09111        0.00900       -4.04064
H          0.74460       -4.92002       -3.35646
H          0.59155       -0.59926       -6.81892
H         -2.25791       -2.93926        0.74123
H         -4.24580       -2.50031        4.42110
H         -5.38879       -1.83086        3.24751
H         -4.42918       -0.74677        4.32179
H         -6.06420        3.58796       -0.50042
H         -5.74026        3.05515        1.15066
H         -6.61225        1.97796       -0.00436
H         -2.34771        1.11145       -2.01252
H         -4.22952       -1.24739       -2.63103
H         -3.17441       -1.87107       -6.98979
H         -1.94592        0.15597       -7.75377
H         -1.07321        2.31052       -7.18672
H         -0.72221        2.90045       -4.19327
H          1.06479        3.91977       -6.23707
H         -0.79640        7.35014       -5.75949
H         -2.06523        2.99051       -9.86220
H         -1.49122        4.59886      -10.31974
H         -4.03762        4.87526       -8.83144
H         -7.23187        7.25004      -12.35350
H         -3.37847        5.42791      -15.02626
H         -8.07442        8.35649      -14.87666
