76

C          9.26988      -14.92285        4.46116
C          8.93612      -13.68858        4.84122
C          9.71617      -12.79630        5.65742
C          9.19895      -11.55872        5.73683
C          7.98442      -11.38579        4.95111
S          7.45398      -12.95411        4.32536
C          7.34224      -10.23638        4.66329
C          7.67066       -8.89699        5.11973
C          6.85523       -7.94339        4.63949
C          5.81603       -8.45362        3.77470
S          5.94723      -10.17514        3.57563
C          4.83889       -7.74159        3.19285
N          3.84075       -8.21274        2.35319
C          2.80934       -7.52937        1.77396
S          2.17426       -6.07338        2.46177
C          0.97940       -5.94234        1.28002
N          0.01846       -4.87525        1.31202
O         -0.81010       -4.85625        0.39089
O          0.07274       -4.06089        2.24226
C          1.05192       -6.93119        0.33403
C          2.10158       -7.86384        0.61547
C          2.42237       -8.98119       -0.23495
C          1.76941       -9.32112       -1.36559
C          2.17769      -10.39718       -2.20301
S          3.82681      -10.89238       -2.32993
C          1.45129      -11.16038       -3.07824
N          0.10579      -11.07886       -3.31452
C         -0.17035      -12.02318       -4.22363
S          1.11577      -13.08171       -4.88721
C          2.18175      -12.12554       -3.78432
C          3.50856      -12.12553       -3.47919
C          4.48971      -12.96151       -4.06322
C          5.62334      -13.27089       -3.40880
C          6.67691      -14.04962       -3.98198
C          8.05252      -13.98900       -3.69665
C          8.56870      -13.11523       -2.68607
N          8.91820      -12.43624       -1.80721
C          8.75159      -14.93809       -4.47124
C          7.93948      -15.73276       -5.20195
S          6.33096      -15.32501       -5.12373
S          8.72396      -16.98363       -6.01186
C         10.18532      -16.42493       -5.38962
C         10.08326      -15.31039       -4.63171
C         11.33314      -14.78713       -4.24025
C         11.61781      -13.52888       -3.62856
N         11.87105      -12.47466       -3.20716
C         12.35687      -15.65677       -4.63909
S         11.74005      -17.00110       -5.55786
C         13.76737      -15.56670       -4.41578
C         14.51242      -14.94140       -5.36054
C         15.95177      -14.73050       -5.22350
C         16.62788      -15.09982       -4.11975
C         15.90806      -15.76192       -3.05142
C         16.45528      -16.18570       -1.89670
Si        15.17731      -17.06032       -0.82875
C         13.90898      -16.72170       -2.18384
C         14.46091      -16.04121       -3.20954
H         10.21052      -15.37825        4.74237
H          8.60703      -15.50259        3.82357
H         10.63640      -13.10435        6.13450
H          9.66811      -10.75894        6.29257
H          8.48798       -8.68602        5.79604
H          6.94734       -6.89205        4.87749
H          4.80189       -6.66825        3.35725
H          3.93573       -9.21355        2.17358
H          0.38155       -6.97926       -0.51613
H          3.28242       -9.57420        0.06725
H          0.88982       -8.77829       -1.69906
H         -1.17796      -12.18254       -4.59045
H          4.29909      -13.32496       -5.07039
H          5.79451      -12.89497       -2.40236
H         14.06246      -14.54737       -6.26837
H         16.46637      -14.24804       -6.04870
H         17.69423      -14.93204       -4.02426
H         17.48371      -16.08023       -1.58616
H         12.88640      -17.05092       -2.08309
