93

C        -10.79794       -3.04486       -8.14187
C        -10.93659       -4.28803       -7.61984
C        -11.20988       -5.43076       -8.42299
N        -11.41664       -6.36932       -9.07092
C        -10.75233       -4.55435       -6.22728
N        -10.61611       -4.76176       -5.09121
C        -10.88534       -2.61757       -9.58280
C        -10.34314       -1.32700       -9.66935
C        -10.40750       -0.51346      -10.79189
C        -11.05196       -1.02606      -11.93291
C        -11.52142       -2.35039      -11.90325
C        -11.43869       -3.17160      -10.73524
S        -12.21197       -2.77216      -13.43788
C        -12.03090       -1.19978      -14.03289
C        -11.37174       -0.36878      -13.16983
Br       -12.68296       -0.63435      -15.69699
C         -9.82525       -0.88095       -8.37517
O         -9.11871        0.08321       -8.16199
C        -10.38359       -1.84224       -7.38710
C        -10.63247       -1.40865       -6.13965
N        -10.29811       -0.18498       -5.57706
C        -10.67530        0.34063       -4.37162
S        -11.69686       -0.51329       -3.26151
C        -11.73765        0.77910       -2.18503
N        -12.51889        0.66502       -0.99485
O        -11.96154        0.98675        0.06228
O        -13.69329        0.29266       -1.11699
C        -10.96921        1.84593       -2.57774
C        -10.34833        1.59479       -3.84917
C         -9.56828        2.59231       -4.53455
C         -8.25856        2.83713       -4.33299
C         -7.48374        3.90929       -5.00442
C         -6.10807        3.74930       -5.22122
C         -5.36479        4.76783       -5.86005
N         -3.96675        4.49709       -6.14965
O         -3.24407        4.17207       -5.19837
O         -3.61065        4.55723       -7.33571
C         -5.94486        5.97682       -6.26976
C         -7.31401        6.13737       -6.02386
C         -8.06701        5.12328       -5.40101
C         -5.21724        7.06208       -6.95859
C         -4.63047        8.12950       -6.39395
C         -3.98812        9.19107       -7.13913
C         -3.73081       10.28311       -6.40216
C         -4.18587       10.16605       -5.02427
S         -4.61119        8.48069       -4.68746
C         -4.42113       11.18408       -4.17161
C         -4.23964       12.60093       -4.44503
C         -4.93806       13.39776       -3.61916
C         -5.72357       12.66147       -2.64692
S         -5.22668       10.98812       -2.60798
C         -6.78607       13.16309       -1.99294
C         -7.69455       12.42829       -1.12200
C         -9.03304       12.34455       -1.23190
C         -9.99204       12.85649       -2.22033
C         -9.84521       12.90938       -3.57044
C        -10.85927       13.39437       -4.43549
N        -11.68085       13.81362       -5.15576
C         -8.72125       12.39242       -4.27742
N         -7.88340       11.96866       -4.95743
C        -11.29858       13.01140       -1.50382
C        -11.23516       12.32656       -0.28630
C         -9.85313       11.82917       -0.06852
O         -9.46779       11.18111        0.88144
C        -12.33478       12.18688        0.57241
C        -13.57840       12.75881        0.17736
C        -13.61414       13.49112       -1.01780
C        -12.48270       13.64912       -1.85281
S        -15.18389       14.13724       -1.32889
C        -15.82881       13.38894        0.03598
C        -14.89021       12.72653        0.78744
Br       -17.65506       13.46298        0.45385
H        -10.04039        0.50795      -10.75408
H        -11.86044       -4.17190      -10.77316
H        -11.15352        0.67297      -13.37797
H        -11.20727       -2.03543       -5.46488
H         -9.70702        0.39113       -6.18965
H        -10.88379        2.76603       -2.01007
H        -10.12560        3.20020       -5.24369
H         -7.69706        2.21560       -3.63630
H         -5.60966        2.82766       -4.92369
H         -7.81878        7.05628       -6.32019
H         -9.12452        5.31124       -5.22718
H         -5.21183        6.96447       -8.04286
H         -3.78396        9.12058       -8.19930
H         -3.30200       11.18616       -6.81500
H         -3.65720       12.97510       -5.27578
H         -4.97824       14.47385       -3.71983
H         -7.04201       14.21010       -2.15026
H         -7.20857       11.97909       -0.25292
H        -12.24439       11.63902        1.50768
H        -12.59065       14.24587       -2.74958
H        -15.12967       12.21024        1.70986
