104

C          9.40099       -4.89247        3.68068
C          9.86948       -4.27839        2.59215
C         11.22965       -4.27707        2.11637
C         11.37124       -3.77318        0.87839
C         10.11228       -3.41062        0.26899
S          8.83546       -3.40255        1.51902
C          9.85515       -3.23938       -1.04067
C         10.71231       -3.24268       -2.21074
C         10.04401       -3.32271       -3.38349
C          8.60224       -3.43414       -3.22402
S          8.22364       -3.08557       -1.56281
C          7.69285       -3.75678       -4.17610
C          6.24363       -4.07175       -3.93197
S          5.45906       -3.23870       -2.68286
C          3.94663       -3.88678       -2.96821
N          2.88508       -3.50621       -2.20282
C          3.01127       -2.66450       -1.03519
C          4.02816       -4.73893       -4.05700
C          5.39227       -4.91955       -4.57328
C          5.75401       -5.88761       -5.59976
O          5.11452       -6.95106       -5.74875
O          6.74251       -5.50371       -6.44465
C          6.70062       -6.18388       -7.70695
C          2.88566       -5.35980       -4.65849
C          1.77819       -5.69940       -3.99092
C          0.68548       -6.43482       -4.51736
S          0.38573       -6.45719       -6.19162
C         -0.93249       -7.52023       -6.04122
N         -1.53775       -7.88597       -7.19607
C         -2.94110       -8.10466       -7.38116
C         -1.15449       -7.86002       -4.71367
C         -0.23938       -7.20273       -3.81112
C         -0.23325       -7.31690       -2.32669
O         -0.54850       -8.30791       -1.69334
O          0.10005       -6.11527       -1.75893
C          0.02965       -5.97788       -0.34198
C         -2.19616       -8.73384       -4.26289
C         -2.70072       -9.77844       -4.93758
C         -3.82127      -10.54295       -4.52244
S         -4.52372      -10.24445       -3.00781
C         -5.38996      -11.69694       -3.00739
N         -6.02206      -12.11440       -1.87357
C         -6.00209      -11.32958       -0.64817
C         -5.34804      -12.28654       -4.27188
C         -4.49524      -11.56037       -5.20030
C         -4.31396      -11.85190       -6.63359
O         -4.30497      -12.98353       -7.11371
O         -4.23576      -10.72227       -7.38568
C         -4.18937      -10.86353       -8.80686
C         -6.09076      -13.46099       -4.64285
C         -7.29311      -13.79159       -4.15081
C         -7.98827      -15.00057       -4.50658
C         -9.31934      -15.11695       -4.53095
C        -10.00778      -16.34862       -4.79527
C        -11.33993      -16.22349       -4.83521
C        -11.81279      -14.85864       -4.62749
S        -10.44926      -13.79907       -4.29484
C        -13.09420      -14.44573       -4.68278
C        -14.24399      -15.28463       -4.96256
C        -15.41295      -14.62912       -4.96443
C        -15.27531      -13.22324       -4.68801
S        -13.61381      -12.77440       -4.43359
C        -16.27973      -12.34578       -4.62636
H         10.04224       -5.47961        4.32558
H          8.34478       -4.85448        3.93913
H         12.04251       -4.67771        2.70195
H         12.30805       -3.71718        0.34687
H         11.78649       -3.15794       -2.13713
H         10.51934       -3.32849       -4.35538
H          8.03613       -3.84349       -5.20455
H          1.98644       -3.95610       -2.25610
H          3.60138       -1.77129       -1.25297
H          3.45447       -3.21854       -0.20214
H          2.01669       -2.32829       -0.73226
H          7.70995       -6.22244       -8.11590
H          6.06011       -5.59606       -8.36458
H          6.31839       -7.21350       -7.65704
H          2.97748       -5.61929       -5.70305
H          1.74909       -5.51689       -2.93762
H         -0.93689       -8.21123       -7.94870
H         -3.58091       -7.24047       -7.23141
H         -3.37990       -8.84238       -6.74624
H         -3.07466       -8.50838       -8.37159
H          0.67046       -6.69254        0.17970
H         -1.01184       -6.05299       -0.03321
H          0.38576       -4.96533       -0.10987
H         -2.57969       -8.52887       -3.26872
H         -2.27158      -10.05088       -5.89390
H         -6.15345      -13.11204       -1.74811
H         -6.38882      -10.31520       -0.81681
H         -4.99650      -11.25358       -0.21826
H         -6.63521      -11.80810        0.10173
H         -3.63720      -11.74557       -9.13056
H         -3.67452      -10.00930       -9.24921
H         -5.21038      -10.83556       -9.18603
H         -5.67539      -14.09800       -5.42320
H         -7.79426      -13.14648       -3.43322
H         -7.36844      -15.86458       -4.71994
H         -9.48218      -17.28363       -4.92491
H        -11.99888      -17.05649       -5.00472
H        -14.17007      -16.34486       -5.15577
H        -16.36829      -15.09699       -5.15490
H        -17.30877      -12.64742       -4.78525
H        -16.09837      -11.29671       -4.41301
