202

C          0.15037       13.85775        5.76379
C         -1.00272       14.50874        5.55217
C         -1.32306       15.79365        6.19068
C         -2.13002       16.73605        5.52302
C         -2.37651       17.99961        6.08040
C         -1.78713       18.31050        7.29460
C         -1.08820       17.34255        7.99595
C         -0.85177       16.08444        7.47432
N         -0.71910       17.82858        9.24730
C         -0.03229       17.05870       10.23906
C         -1.24996       19.11539        9.44800
O         -1.25307       19.75173       10.48824
C         -1.77740       19.60563        8.08892
C         -0.89309       20.75702        7.52855
C         -0.85868       20.69233        6.00150
O         -1.80709       20.93562        5.26797
N          0.42401       20.26476        5.62042
C          0.75483       20.00550        4.24924
C          1.33480       20.37128        6.69321
C          2.73360       20.28038        6.74494
C          3.60736       19.69906        5.69930
C          4.87311       20.10600        5.48585
C          5.85956       19.50569        4.57054
C          6.86184       20.35613        4.05254
C          7.85346       19.88006        3.19300
C          7.81576       18.54697        2.83190
C          6.88869       17.68201        3.40913
C          5.90464       18.13430        4.27499
N          7.17504       16.37652        2.99997
C          6.54540       15.20475        3.54640
C          8.31647       16.34267        2.19208
O          8.94575       15.35510        1.86291
C          8.65797       17.80552        1.81662
C          8.36607       18.14937        0.32444
C          7.28864       19.23532        0.15378
O          7.41704       20.42005        0.42959
N          6.15199       18.62826       -0.38574
C          4.88373       19.29488       -0.43430
C          6.45405       17.36333       -0.91926
C          5.71529       16.50738       -1.74862
C          4.37290       16.78304       -2.31830
C          3.22587       16.30459       -1.79884
C          1.83046       16.47027       -2.30759
C          0.79559       15.81790       -1.58560
C         -0.55078       15.84344       -1.99615
C         -0.86835       16.54468       -3.14222
C          0.11893       17.27900       -3.81101
C          1.46419       17.23221       -3.43535
N         -0.50376       18.02564       -4.82495
C          0.14311       18.96912       -5.68716
C         -1.89086       17.85586       -4.79982
O         -2.72587       18.52166       -5.39317
C         -2.17875       16.63955       -3.90774
C         -2.49787       15.40493       -4.80238
C         -1.22854       14.88826       -5.50364
O         -0.28424       14.32207       -4.96329
N         -1.33501       15.18823       -6.85848
C         -0.23358       15.05207       -7.76202
C         -2.65190       15.52846       -7.20294
C         -3.24726       15.65527       -8.46366
C         -2.59008       15.34042       -9.74956
C         -1.92390       16.19637      -10.54916
C         -1.27190       15.78441      -11.82115
C         -1.79814       14.74728      -12.62954
C         -1.18672       14.34931      -13.83089
C         -0.04950       15.01929      -14.23709
C          0.45703       16.07335      -13.46857
C         -0.12309       16.46232      -12.26722
N          1.55400       16.63218      -14.13208
C          2.31533       17.75905      -13.66979
C          1.72034       16.06346      -15.39326
O          2.42465       16.49463      -16.29033
C          0.83885       14.78778      -15.44257
C          1.69440       13.49238      -15.39445
C          2.25498       13.24904      -13.99183
O          1.61894       12.83473      -13.03357
N          3.60524       13.61395      -14.00831
C          4.37154       13.62928      -12.79497
C          4.06451       13.83758      -15.32723
C          5.30598       14.22073      -15.84672
C          6.46682       14.66115      -15.04472
C          7.65892       14.99029      -15.57101
C          8.80659       15.40683      -14.78182
C          9.79465       14.45588      -14.44491
C         10.93592       14.83087      -13.73639
C         11.05915       16.16148      -13.37948
C         10.08202       17.09788      -13.74431
C          8.94625       16.74795      -14.43421
N         10.43411       18.35587      -13.25977
C          9.54789       19.48951      -13.24136
C         11.67607       18.31445      -12.63133
O         12.33860       19.27126      -12.26636
C         12.02045       16.81474      -12.41005
C         11.73464       16.38511      -10.93147
C         10.20687       16.23336      -10.70839
O          9.51302       15.27473      -11.01015
N          9.76871       17.43510      -10.15910
C          8.40398       17.87540      -10.17473
C         10.84007       18.12438       -9.59015
C         10.81566       19.25791       -8.80709
C         12.03497       19.71484       -8.30562
C         13.23749       19.04553       -8.60589
C         13.24941       17.91782       -9.43282
C         12.03730       17.47215       -9.92430
C          5.40244       14.23421      -17.26053
C          4.33965       13.89876      -18.10748
C          3.09998       13.59267      -17.57648
C          2.97262       13.59761      -16.19505
C         -4.63001       15.90732       -8.48267
C         -5.37281       16.01745       -7.28827
C         -4.76162       15.88757       -6.04018
C         -3.39853       15.64343       -6.00795
C          6.36920       15.32960       -2.16869
C          7.69937       15.03990       -1.80038
C          8.41938       15.91586       -0.99840
C          7.78032       17.05814       -0.54548
C          3.33922       20.69735        7.95344
C          2.59561       21.14788        9.05295
C          1.20898       21.14531        9.00616
C          0.59191       20.74159        7.83068
H          0.35794       12.91493        5.26967
H          0.92581       14.24276        6.42015
H         -1.73449       14.10237        4.86062
H         -2.55548       16.50445        4.54773
H         -2.99493       18.71714        5.54506
H         -0.30509       15.34696        8.04655
H          0.76000       16.47117        9.77174
H         -0.74985       16.39318       10.73135
H          0.41861       17.71910       10.98585
H         -2.81890       19.94098        8.21320
H         -1.28865       21.73363        7.83232
H         -0.15890       19.95594        3.64720
H          1.25162       19.03684        4.16587
H          1.38403       20.80888        3.85972
H          3.19905       18.85435        5.15558
H          5.26157       20.96604        6.02876
H          6.86050       21.41771        4.29512
H          8.58688       20.56213        2.77158
H          5.19599       17.44377        4.71631
H          5.46237       15.27670        3.41523
H          6.79080       15.12753        4.60983
H          6.90574       14.30594        3.03721
H          9.71832       17.96188        2.04985
H          9.27668       18.52857       -0.15690
H          4.91167       20.18446        0.20499
H          4.10818       18.63329       -0.03962
H          4.66042       19.60664       -1.45598
H          4.38924       17.35506       -3.24066
H          3.30191       15.69930       -0.89525
H          1.03831       15.25301       -0.68606
H         -1.30706       15.31468       -1.42506
H          2.20603       17.77081       -4.01190
H          0.88370       18.44692       -6.29808
H          0.61467       19.75272       -5.09091
H         -0.59132       19.43018       -6.35690
H         -3.00422       16.88961       -3.23325
H         -2.90168       14.57987       -4.20708
H          0.70566       15.04216       -7.19984
H         -0.19310       15.91399       -8.43338
H         -0.32287       14.11560       -8.31649
H         -2.68430       14.29279      -10.01826
H         -1.80593       17.23758      -10.26124
H         -2.70277       14.22512      -12.32528
H         -1.59851       13.52932      -14.41020
H          0.30314       17.27314      -11.68681
H          2.69340       17.55457      -12.66398
H          1.68286       18.64990      -13.66701
H          3.17083       17.93415      -14.33024
H          0.24416       14.83781      -16.36203
H          1.12496       12.60506      -15.69525
H          3.85876       13.05588      -12.01462
H          4.45105       14.66351      -12.44636
H          5.35354       13.17812      -12.93868
H          6.34089       14.74732      -13.97249
H          7.87925       14.97615      -16.63038
H          9.64913       13.41326      -14.71840
H         11.65732       14.08176      -13.42358
H          8.19471       17.47832      -14.70821
H          8.67360       19.22692      -12.63878
H          9.21697       19.74146      -14.24910
H         10.03369       20.34935      -12.77228
H         13.06134       16.64767      -12.70713
H         12.22451       15.44259      -10.66513
H          7.84507       17.31019      -10.92952
H          8.36889       18.93338      -10.45335
H          7.94680       17.73301       -9.19626
H          9.89195       19.77171       -8.57182
H         12.05765       20.60023       -7.67495
H         14.17325       19.42819       -8.20505
H         14.18435       17.43461       -9.69509
H          6.31910       14.52952      -17.76283
H          4.49065       13.93100      -19.18330
H          2.25741       13.39486      -18.23071
H         -5.15959       15.97168       -9.43124
H         -6.44968       16.18145       -7.34699
H         -5.34984       15.95864       -5.13032
H          5.85978       14.62592       -2.82541
H          8.17636       14.12799       -2.15411
H          9.44718       15.69584       -0.72038
H          4.42190       20.68063        8.06757
H          3.11189       21.49064        9.94682
H          0.63371       21.48033        9.86502
