94

C        -17.19755       12.12564        3.33886
O        -18.07489       11.20916        2.84958
C        -18.15043       11.41438        1.50912
C        -17.32215       12.44633        1.13209
C        -16.71817       12.92244        2.32290
C        -15.79293       13.99928        2.43625
C        -15.61668       14.76329        3.52716
C        -14.69000       15.87208        3.58720
C        -13.37433       15.73588        3.36658
C        -12.42841       16.83294        3.44675
C        -11.10226       16.75023        3.25464
C        -10.20008       17.87584        3.32265
C         -8.92218       17.56759        3.06014
C         -8.70434       16.16255        2.77480
S        -10.23387       15.28525        2.88493
C         -7.53558       15.57935        2.45074
C         -6.24287       16.21399        2.28030
C         -5.27767       15.38632        1.84541
C         -5.72871       14.02631        1.63878
S         -7.39231       13.86408        2.14359
C         -4.99104       13.03247        1.11031
C         -5.40735       11.67280        0.83431
C         -4.71850       10.66098        0.30322
C         -5.58648        9.53812        0.17808
C         -6.90203        9.90385        0.70617
O         -7.89665        9.22139        0.81554
N         -6.69452       11.22496        1.08002
C         -4.89028        8.58517       -0.41958
O         -3.54045        8.95661       -0.67972
C         -3.41495       10.27290       -0.23555
O         -2.41403       10.96215       -0.27664
C         -5.32604        7.29695       -0.88827
C         -6.24382        7.08657       -1.84714
C         -6.64997        5.80055       -2.37459
C         -7.31975        5.88504       -3.53886
C         -7.42593        7.25119       -4.03041
S         -7.02804        8.36912       -2.72576
C         -7.62434        7.66196       -5.29786
C         -7.90486        6.85326       -6.47027
C         -7.69270        7.50119       -7.62921
C         -7.21041        8.85734       -7.44999
S         -7.35706        9.34137       -5.78869
C         -6.67336        9.62366       -8.41114
C         -6.04110       10.95299       -8.22406
C         -4.65703       10.98423       -8.00744
C         -3.98731       12.20083       -7.93896
C         -4.68729       13.40381       -8.10077
C         -6.08646       13.38612       -8.28730
C         -6.77494       12.14697       -8.30688
N         -8.12404       12.11682       -8.41371
C         -8.80978       13.28688       -8.46908
C        -10.31252       13.17516       -8.52689
C        -10.87667       11.99731       -7.73584
C         -8.13009       14.49906       -8.53621
C         -8.79283       15.83707       -8.73116
C         -8.81295       16.26345      -10.19249
N         -6.77528       14.54297       -8.44639
C         -3.94898       14.68992       -8.14046
C         -2.81780       14.96893       -7.47714
H        -17.02328       12.07550        4.40456
H        -18.82324       10.75945        0.97361
H        -17.19071       12.81849        0.12588
H        -15.21441       14.23006        1.54245
H        -16.21664       14.60770        4.42074
H        -15.11838       16.83117        3.86868
H        -12.98452       14.74913        3.12187
H        -12.85592       17.80647        3.68024
H        -10.53916       18.87478        3.55832
H         -8.12481       18.29518        3.06362
H         -6.07714       17.26541        2.46536
H         -4.26185       15.70047        1.64566
H         -3.96347       13.25791        0.81846
H         -7.42537       11.79876        1.48322
H         -4.80066        6.45130       -0.45504
H         -6.40334        4.86866       -1.88383
H         -7.66586        5.02369       -4.09261
H         -8.24788        5.82915       -6.41344
H         -7.83201        7.05618       -8.60550
H         -6.62367        9.25929       -9.43371
H         -4.09048       10.06141       -7.90057
H         -2.91045       12.19816       -7.78680
H        -10.61238       13.09533       -9.57690
H        -10.78375       14.07138       -8.11433
H        -10.46740       11.03962       -8.07270
H        -11.96466       11.95539       -7.85249
H        -10.65670       12.10350       -6.66753
H         -8.23512       16.58429       -8.15302
H         -9.80742       15.85813       -8.32636
H         -7.81120       16.23441      -10.63470
H         -9.18880       17.28863      -10.27952
H         -9.46367       15.61406      -10.78731
H         -4.39609       15.46609       -8.76091
H         -2.33170       14.26017       -6.81622
H         -2.35663       15.94795       -7.57221
