61

C          2.84306        2.33859       -2.04105
C          1.76647        2.49892       -1.25894
C          1.86159        2.88920        0.11079
S          3.23934        2.50742        1.06716
C          2.63410        3.23505        2.50722
C          3.41898        3.21070        3.72774
S          3.35779        4.47549        4.90402
C          4.46003        3.70850        5.99178
C          4.78280        4.34419        7.22100
C          5.10111        3.64599        8.32439
C          5.46829        4.26948        9.55829
S          4.84659        5.81461        9.99977
C          5.70586        5.85527       11.47601
C          5.59162        7.00132       12.28879
C          6.31577        8.13412       12.23218
C          7.42951        8.35148       11.32732
C          7.57353        9.35534       10.45061
S          6.49432       10.65565       10.14034
C          7.51744       11.31560        8.87450
O          7.24835       12.34724        8.28137
N          8.61406       10.51671        8.69616
C          9.63006       10.84227        7.72195
C          8.75039        9.44194        9.54125
O          9.68564        8.65480        9.56795
C          5.81081        9.05129       13.23722
C          4.78281        8.53427       13.91602
C          4.58334        7.19687       13.34700
O          3.73671        6.39758       13.69584
C          6.39994        4.67714       11.67511
C          7.15878        4.42849       12.86285
N          7.77987        4.25420       13.82889
C          6.29061        3.78377       10.56616
C          6.97921        2.52060       10.47852
N          7.53773        1.51147       10.38319
C          4.86267        2.55986        5.39325
C          5.77424        1.53868        5.77792
C          5.87469        0.50209        4.84566
C          6.67902       -0.75059        4.98298
S          4.93649        0.71243        3.38651
C          4.32980        2.25787        4.13610
C          1.40029        3.79575        2.22755
S          0.28556        4.70356        3.24398
C         -1.01952        4.84850        2.05574
S         -2.50450        5.52345        2.41408
S         -0.62386        4.19126        0.46187
C          0.95912        3.56617        0.90008
H          2.73661        2.05280       -3.08173
H          3.85747        2.49519       -1.68605
H          0.77725        2.35704       -1.68930
H          4.75718        5.43081        7.22771
H          5.10076        2.55962        8.30640
H          8.20972        7.58916       11.36884
H          9.21414       11.45056        6.91362
H         10.06416        9.92753        7.30774
H         10.41913       11.40937        8.22505
H          6.22382       10.03600       13.40618
H          4.19534        8.95522       14.71081
H          6.33308        1.51771        6.70556
H          7.22874       -0.76176        5.93007
H          7.40469       -0.84327        4.16916
H          6.01938       -1.62462        4.97057
