84

C         -7.08562       -2.46705        4.69936
C         -8.03955       -1.51337        4.86896
C         -8.93693       -1.49609        5.97729
N         -9.66540       -1.47293        6.87113
C         -8.25822       -0.46510        3.93012
N         -8.43525        0.38859        3.16555
C         -6.88151       -3.67396        5.56972
C         -5.99779       -4.53672        4.92450
C         -5.54892       -5.74575        5.44381
C         -6.04550       -6.14416        6.70030
C         -6.95231       -5.30141        7.35909
C         -7.37521       -4.05717        6.81469
S         -7.44393       -5.98731        8.86858
C         -6.45677       -7.33965        8.65124
C         -5.76627       -7.32419        7.46986
Br        -6.31554       -8.72311        9.90587
C         -5.57223       -3.99375        3.63628
O         -4.86633       -4.59680        2.85516
C         -6.13863       -2.60334        3.55295
C         -5.70420       -1.69231        2.66171
S         -4.61166       -1.98068        1.34377
C         -3.09300       -1.50820        2.12199
C         -2.57498       -2.15359        3.22684
S         -1.05539       -1.53631        3.69820
C         -1.03538       -0.45627        2.37349
C         -2.19567       -0.49892        1.62471
S         -2.51728        0.46816        0.17050
C         -1.72802        1.95499        0.56661
C         -2.09109        3.11927        0.00884
C         -1.43198        4.30639        0.42750
O         -1.70157        4.83867        1.67305
C         -0.89628        5.91889        1.79042
C         -0.57473        6.84429        2.77449
C         -1.12842        6.73026        4.09061
O         -0.49290        6.91997        5.11922
N         -2.42957        6.30958        4.09948
C          0.38260        7.66433        2.16872
O          0.63618        7.16103        0.86594
C         -0.17575        6.08435        0.69581
C         -0.46596        5.07318       -0.22931
C          1.15007        8.78404        2.63851
C          0.81028        9.71275        3.54833
C          1.75607       10.67582        4.09314
C          1.40473       11.11478        5.31556
C          0.17243       10.49767        5.78186
S         -0.71509        9.91071        4.37244
C         -0.11146       10.15912        7.05488
C          0.71067       10.40538        8.22450
C          0.54775        9.47361        9.18017
C         -0.39957        8.42959        8.80464
S         -1.38855        9.03870        7.50595
C         -0.34756        7.19498        9.33864
C         -0.99097        5.97744        8.95958
S         -0.45370        4.44050        9.64745
C         -1.48108        3.45063        8.63075
C         -2.23094        4.31710        7.91861
C         -1.97618        5.65777        8.09807
N         -2.77712        6.41720        7.30630
N         -3.60848        5.62272        6.54530
C         -3.26646        4.35438        6.93085
C         -1.41801        2.03290        8.67515
C         -1.66816        1.28340        7.59244
H         -4.83466       -6.35468        4.89551
H         -8.06469       -3.45683        7.39682
H         -5.08739       -8.10768        7.15394
H         -6.05705       -0.66933        2.68315
H         -2.99054       -2.98371        3.77725
H         -0.15162        0.14552        2.22307
H         -0.90315        1.95175        1.27096
H         -2.91998        3.20057       -0.68622
H         -2.85459        5.87722        3.29067
H         -2.86302        6.06723        4.98772
H         -0.03557        4.88876       -1.20057
H          2.15063        8.83652        2.21421
H          2.68122       10.93857        3.59965
H          2.01221       11.76839        5.92410
H          1.42178       11.21605        8.28782
H          1.11992        9.44476       10.09720
H          0.39344        7.06597       10.12887
H         -2.71233        7.41818        7.14454
H         -3.77249        3.52231        6.45974
H         -1.13772        1.54829        9.60649
H         -1.90811        1.70781        6.62223
H         -1.60452        0.20080        7.64561
