88

C        -16.96945       -3.03614       -5.98106
C        -17.45002       -4.31335       -5.97702
C        -17.75601       -5.06453       -7.17464
N        -18.01463       -5.74247       -8.08426
C        -17.74664       -5.24530       -4.96503
N        -17.97474       -6.28394       -4.49821
C        -16.30986       -2.64008       -7.29798
C        -15.92526       -1.31928       -7.26585
C        -15.37163       -0.65438       -8.37313
C        -15.21763       -1.36275       -9.59550
C        -15.49037       -2.72835       -9.58908
C        -15.93835       -3.38522       -8.42845
S        -15.22175       -3.46460      -11.12360
C        -14.79892       -1.98552      -11.80957
C        -14.78987       -0.95047      -10.90685
Br       -14.37463       -1.80167      -13.62444
C        -16.09721       -0.76538       -5.91786
O        -15.68080        0.34031       -5.62894
C        -16.81072       -1.80120       -5.02990
C        -17.18467       -1.40348       -3.75597
C        -16.83576       -0.05061       -3.03919
C        -16.46572        0.31883       -1.76137
C        -15.71186        1.54693       -1.45924
C        -14.81971        1.41845       -0.43944
C        -14.79541        0.07647        0.16045
S        -16.39028       -0.61526       -0.25801
C        -13.73114       -0.51210        0.77434
C        -12.48477        0.14653        1.15612
C        -11.46541       -0.66345        1.48906
C        -11.75575       -2.08411        1.33353
S        -13.49493       -2.25960        1.13600
C        -10.74334       -2.98109        1.28903
C        -10.72679       -4.36876        0.95651
S        -11.96842       -5.56121        1.16615
C        -11.07353       -6.88169        0.40353
C         -9.86541       -6.36694        0.09064
C         -9.65771       -5.04391        0.41644
N         -8.40088       -4.64202        0.06014
N         -7.71912       -5.66897       -0.55247
C         -8.61945       -6.70161       -0.54243
C        -11.62383       -8.16430        0.11363
C        -12.54831       -8.75842        0.88316
C        -13.26961       -9.94804        0.45050
C        -14.60673      -10.06404        0.51930
C        -15.40328      -11.08714       -0.12318
C        -16.67725      -10.71217       -0.33434
C        -16.96432       -9.38192        0.16489
S        -15.64696       -8.86319        1.22604
C        -17.94447       -8.54641       -0.21024
C        -18.93133       -8.70226       -1.27427
C        -19.31708       -7.51769       -1.79358
C        -18.55810       -6.42948       -1.19541
S        -17.97347       -6.88992        0.35982
C        -18.06171       -5.39867       -1.88307
C        -16.68525       -5.02278       -1.76577
S        -16.25243       -3.73155       -0.72713
C        -14.78240       -3.44547       -1.63525
C        -14.36883       -4.66596       -2.03938
C        -15.49479       -5.40720       -2.37102
O        -15.20862       -6.12923       -3.47154
C        -13.90944       -5.73693       -3.84520
O        -13.36818       -5.99127       -4.91008
O        -13.36563       -4.90084       -2.89226
C        -14.44349       -2.19193       -2.18060
C        -13.27780       -1.70977       -2.59790
H        -15.08803        0.39026       -8.29783
H        -15.98613       -4.46369       -8.49767
H        -14.51569        0.06254      -11.16780
H        -17.73160       -2.08681       -3.10980
H        -16.71957        0.76020       -3.76037
H        -15.79540        2.44881       -2.04590
H        -14.13166        2.19504       -0.13663
H        -12.38734        1.22150        1.19530
H        -10.49222       -0.30701        1.79579
H         -9.75493       -2.57162        1.46570
H         -7.94945       -3.74659        0.19420
H         -8.32964       -7.64110       -0.99814
H        -11.30709       -8.63642       -0.81445
H        -12.87796       -8.29362        1.81029
H        -12.69519      -10.70482       -0.07756
H        -14.98781      -12.02644       -0.45551
H        -17.41239      -11.30833       -0.85392
H        -19.22749       -9.66026       -1.67706
H        -19.92648       -7.42179       -2.68627
H        -18.61153       -5.05760       -2.75060
H        -15.27546       -1.58641       -2.39212
H        -12.34339       -2.23167       -2.49403
H        -13.28844       -0.71889       -3.05747
