108

C         10.11307        3.15154       -6.00051
C          9.84495        3.98044       -7.08219
F         10.68569        3.99170       -8.12456
C          8.73395        4.81289       -7.09014
C          7.84918        4.79774       -6.00989
C          8.09538        3.97782       -4.89762
C          9.26838        3.16368       -4.88402
C          9.59911        2.41610       -3.74287
C          8.79642        2.51633       -2.61887
C          7.58363        3.21894       -2.68994
C          7.21829        3.95851       -3.80125
C          6.79737        3.00429       -1.45181
O          5.69696        3.44745       -1.20209
C          7.61628        2.04925       -0.63067
C          8.95872        2.04392       -1.22668
C         10.13891        1.94601       -0.56673
C         10.19946        1.86879        0.85402
N         10.27399        1.85594        2.01370
C         11.39656        2.01799       -1.22254
N         12.41909        2.04989       -1.77425
C          6.99841        1.21507        0.22560
C          7.56868       -0.00722        0.71276
C          7.40388       -0.68745        1.90824
C          8.10781       -1.95444        1.94454
C          8.02242       -2.86993        3.00158
C          7.16914       -2.42482        4.02908
C          6.51896       -1.15301        4.02321
C          6.61392       -0.21892        2.96612
C          8.94128       -2.13153        0.85863
S          8.48311       -1.01656       -0.36403
C          9.95381       -3.10363        0.62238
C         11.01211       -2.87601       -0.17073
C         12.01661       -3.86671       -0.36733
C         11.97459       -5.24384       -0.46527
C         13.28749       -5.84851       -0.56082
C         13.49371       -7.23416       -0.60383
C         12.28600       -7.96767       -0.56345
C         10.99394       -7.37066       -0.50205
C         10.78255       -5.98174       -0.46106
C         14.30797       -4.91448       -0.62000
S         13.63338       -3.32120       -0.55317
C         15.71442       -5.08582       -0.79885
C         16.60842       -4.21587       -0.30072
C         18.05031       -4.26016       -0.48222
C         18.81955       -3.72493        0.48588
C         20.24751       -3.65596        0.37306
C         20.95632       -4.10517       -0.83097
C         20.36851       -4.63968       -1.89818
S         18.65750       -4.90227       -2.00543
C         22.32331       -3.87419       -0.59905
C         22.49307       -3.33923        0.65434
C         23.83534       -3.07178        0.96047
C         24.64328       -3.44046       -0.10639
S         23.74588       -4.08362       -1.44584
C         21.18591       -3.20158        1.25316
C         20.95544       -2.67613        2.57878
C         20.23786       -1.56818        2.81923
C         20.02981       -1.03091        4.14610
C         19.76581        0.24991        4.44238
C         19.24508        0.59365        5.80634
O         19.30300       -0.07014        6.81885
C         18.57415        1.89836        5.64796
C         17.87335        2.58467        6.62646
C         17.26966        3.79820        6.27459
C         17.33826        4.25887        4.92408
C         16.71804        5.46788        4.57912
C         16.06950        6.22252        5.55098
C         16.01718        5.78319        6.86604
C         16.60227        4.57502        7.23284
F         15.40713        6.52549        7.79989
F         15.50606        7.38798        5.20562
C         18.04648        3.52178        3.95593
C         18.71333        2.36503        4.33028
C         19.66896        1.46623        3.62284
C         20.51907        1.85957        2.64549
C         21.71658        1.13709        2.34880
N         22.72134        0.59611        2.13830
C         20.37397        3.08925        1.94224
N         20.23155        4.08314        1.35582
H         11.00191        2.52668       -6.03324
H          8.56556        5.47142       -7.93640
H          6.98110        5.45356       -6.03297
H         10.49361        1.79928       -3.74779
H          6.28770        4.51929       -3.80089
H          5.95337        1.39335        0.47794
H          8.51405       -3.83255        3.04343
H          7.00345       -3.08473        4.88167
H          5.90877       -0.89333        4.88896
H          6.11574        0.74039        3.00126
H          9.87534       -4.03438        1.17344
H         11.17374       -1.90911       -0.63972
H         14.45631       -7.72451       -0.65579
H         12.33804       -9.05643       -0.58925
H         10.11924       -8.02080       -0.48692
H          9.78363       -5.56792       -0.44101
H         16.04535       -5.95672       -1.35807
H         16.26549       -3.37940        0.30757
H         18.37131       -3.32710        1.39139
H         20.95799       -4.95026       -2.75515
H         24.20762       -2.63555        1.87859
H         25.71850       -3.36343       -0.18430
H         21.45783       -3.20193        3.38774
H         19.78333       -1.03858        1.98383
H         20.01068       -1.76784        4.95209
H         17.81642        2.18470        7.63587
H         16.74718        5.84931        3.56137
H         16.54192        4.26307        8.27214
H         18.07247        3.88735        2.93325
