108

C          2.29552      -14.08039        3.03031
C          2.26985      -13.35331        1.91097
C          1.78053      -13.81329        0.64006
C          1.74682      -12.85228       -0.29251
C          2.21669      -11.55470        0.17227
S          2.81507      -11.69963        1.82867
C          2.13128      -10.39959       -0.51708
C          1.50209      -10.23329       -1.81449
C          1.17633       -8.96217       -2.08658
C          1.52278       -8.04217       -1.02017
S          2.64534       -8.81959        0.06838
C          0.97388       -6.81915       -0.94158
C          1.17990       -5.81081        0.05336
S          1.07366       -4.16241       -0.51462
C          1.52778       -3.51256        0.98964
C          1.76513       -4.49969        1.90939
C          1.43521       -5.80158        1.42335
C          1.33010       -6.91563        2.27121
S          2.39824       -6.92518        3.74419
O          1.29235       -7.48609        4.77212
C          1.77986       -7.83689        6.06403
C          2.13611       -5.15928        4.18921
C          2.06931       -4.14352        3.21987
O          2.22379       -4.81576        5.52808
C          1.32909       -3.75497        5.86901
C          0.07562       -7.65860        2.22688
C         -0.02448       -8.97136        2.42483
C         -1.28531       -9.59842        2.38234
O         -1.53415      -10.74221        3.13063
C         -2.46748       -9.29405        1.75418
C         -3.10990       -8.34163        0.89452
O         -2.65132       -7.32566        0.40770
N         -4.40938       -8.80407        0.77451
C         -4.66830       -9.94789        1.49715
O         -5.72066      -10.55050        1.61925
C         -3.41321      -10.25045        2.10495
C         -2.85094      -11.12078        2.98961
C         -3.49068      -12.15462        3.68701
C         -3.07714      -12.57632        4.88284
C         -3.84150      -13.45946        5.69948
S         -3.74603      -13.00916        7.39050
C         -4.67113      -14.32198        7.89294
C         -5.02650      -15.11739        6.83528
C         -4.61039      -14.62423        5.53281
C         -4.94113      -15.31747        4.32543
S         -5.40404      -17.09353        4.48011
O         -6.76059      -16.96931        3.61311
C         -7.09452      -18.14450        2.87955
C         -6.28124      -17.01280        6.08157
C         -5.82903      -16.21376        7.13146
O         -7.20871      -18.00572        6.32365
C         -8.27239      -17.66002        7.21104
C         -5.11769      -14.70420        2.99977
C         -4.80965      -15.24648        1.80751
C         -5.08079      -14.58139        0.53551
C         -5.42459      -15.18161       -0.61914
C         -5.77231      -14.62047       -1.95557
C         -5.51459      -13.38168       -2.44386
C         -5.77919      -12.99000       -3.78279
N         -5.98429      -12.64998       -4.88098
C         -4.90200      -12.35508       -1.68874
N         -4.40097      -11.45840       -1.12960
C         -6.40194      -15.72751       -2.74125
C         -6.32228      -16.90319       -2.00084
C         -5.68377      -16.66347       -0.70548
O         -5.45950      -17.53927        0.10144
C         -6.85581      -18.12407       -2.40548
C         -7.55993      -18.16079       -3.62811
C         -7.65511      -16.98173       -4.37924
C         -7.06946      -15.76091       -3.96164
S         -8.58375      -17.22637       -5.81455
C         -8.87823      -18.83996       -5.42140
C         -8.26569      -19.23910       -4.26340
Br        -9.95158      -19.96420       -6.46553
H          1.94287      -15.10630        3.04927
H          2.65327      -13.66612        3.96759
H          1.46044      -14.83185        0.47137
H          1.39105      -13.02615       -1.29682
H          1.26330      -11.05397       -2.47321
H          0.66053       -8.64780       -2.98304
H          0.30453       -6.53289       -1.75284
H          1.57172       -2.44133        1.13009
H          2.84703       -7.62778        6.20803
H          1.60545       -8.90153        6.25133
H          1.20927       -7.26025        6.79643
H          2.16334       -3.10103        3.49032
H          1.67068       -2.79935        5.45758
H          1.32191       -3.63988        6.95493
H          0.30855       -3.97432        5.53360
H         -0.79840       -7.03837        2.04812
H          0.84222       -9.57883        2.65653
H         -5.11064       -8.33152        0.23358
H         -4.41096      -12.46525        3.24847
H         -2.20885      -12.08576        5.32673
H         -4.90993      -14.44661        8.94094
H         -6.25167      -18.51203        2.28484
H         -7.91487      -17.90276        2.19710
H         -7.43278      -18.93387        3.55801
H         -6.15976      -16.39452        8.14850
H         -8.19898      -16.67525        7.68481
H         -8.31709      -18.41834        7.99878
H         -9.21157      -17.68112        6.65258
H         -5.68736      -13.78127        3.01952
H         -4.36492      -16.23827        1.76923
H         -4.99613      -13.49933        0.59845
H         -6.77165      -19.00231       -1.77038
H         -7.21195      -14.89332       -4.59294
H         -8.33527      -20.24101       -3.85748
