80

C          2.04765        2.01705        6.98032
O          0.88528        1.23325        6.76428
C          0.55086        0.24923        7.65562
C          1.51223       -0.48411        8.36159
C          1.13441       -1.49530        9.24724
C         -0.21232       -1.78940        9.43015
C         -1.18054       -1.09335        8.70600
C         -0.81973       -0.08855        7.79055
C         -1.92142        0.56863        7.05064
C         -1.82062        0.96836        5.77554
N         -2.75309        1.60279        4.99839
C         -2.46914        2.04521        3.64435
C         -3.42768        3.13702        3.23423
C         -2.76029        4.45191        2.91648
C         -4.74881        2.91297        3.13700
C         -5.73007        3.85862        2.67525
C         -5.76046        4.33087        1.41704
C         -6.74333        5.27605        1.01678
O         -7.34847        6.12812        1.89213
C         -8.25074        6.92455        1.24222
C         -9.06807        7.85328        1.94178
C         -8.97354        8.01387        3.27113
N         -9.70889        8.85734        4.06674
C        -11.02106        9.40376        3.76808
C        -11.11889       10.74830        4.43668
C        -12.22882       10.87934        5.44005
C        -10.25297       11.72411        4.09797
C        -10.17791       13.06240        4.68683
C         -9.37494       13.22807        5.82499
C         -9.24106       14.48161        6.41562
C         -9.91127       15.57439        5.87213
C        -10.70795       15.42025        4.73318
C        -10.83979       14.16804        4.12339
O        -11.64605       13.92856        3.04008
C        -11.74968       14.97009        2.07672
C         -8.20532        6.60995       -0.11999
C         -9.02941        7.22938       -1.18400
F         -9.87181        8.20100       -0.74642
F         -8.25820        7.81713       -2.13811
F         -9.81321        6.31732       -1.81679
C         -7.25500        5.54242       -0.24643
O         -6.89735        4.74673       -1.28728
C         -6.90159        5.33508       -2.57563
H          2.45533        2.27576        5.99687
H          2.84939        1.53269        7.54147
H          1.77129        2.94680        7.48553
H          2.57394       -0.32296        8.21682
H          1.89490       -2.05720        9.77998
H         -0.50582       -2.57921       10.11611
H         -2.22616       -1.36051        8.84513
H         -2.87160        0.66256        7.57174
H         -0.89029        0.80188        5.23541
H         -3.48948        2.09202        5.49827
H         -2.54622        1.20135        2.94925
H         -1.43751        2.41063        3.58310
H         -2.08908        4.73994        3.73212
H         -3.46831        5.27581        2.79031
H         -2.17338        4.36419        1.99701
H         -5.15356        1.94097        3.43190
H         -6.48597        4.15278        3.40136
H         -5.03574        3.99767        0.67929
H         -9.78697        8.44725        1.39726
H         -8.23474        7.45626        3.84655
H         -9.48218        8.82665        5.05742
H        -11.78640        8.71308        4.14052
H        -11.19482        9.52619        2.69384
H        -12.10135       10.14144        6.23932
H        -13.19347       10.69515        4.95424
H        -12.27721       11.86792        5.90406
H         -9.49384       11.53273        3.34067
H         -8.84910       12.37619        6.25135
H         -8.61933       14.60271        7.29870
H         -9.82259       16.55048        6.34276
H        -11.23667       16.29137        4.36325
H        -12.47863       14.64972        1.32521
H        -10.79128       15.12617        1.57094
H        -12.12506       15.90538        2.49985
H         -6.58648        4.56614       -3.28861
H         -6.18867        6.16307       -2.63356
H         -7.89913        5.64198       -2.88920
