96

C         -2.80889        9.53697       -9.88423
C         -3.03660       10.74335       -9.35135
C         -3.23919       10.94495       -7.93538
C         -3.81678       12.04977       -7.43488
C         -4.10029       12.33038       -6.05668
C         -4.15914       13.65184       -5.49881
C         -3.96400       14.95489       -6.17901
C         -4.44351       13.47310       -4.16722
O         -4.59970       12.16690       -3.88554
C         -4.43110       11.42547       -5.04081
C         -4.61103       10.00777       -5.04833
C         -4.87890        9.36403       -3.90456
C         -5.00592        7.94133       -3.69010
C         -4.97749        6.94220       -4.58948
C         -5.02213        5.55694       -4.23521
C         -5.90474        4.97382       -3.25462
C         -6.91401        5.63765       -2.38776
C         -5.62772        3.63033       -3.27826
O         -4.66422        3.35249       -4.17787
C         -4.24834        4.52413       -4.77784
C         -3.15583        4.46966       -5.74742
S         -2.99862        3.02687       -6.68121
C         -1.48377        3.47544       -7.33991
C         -0.81520        2.54392       -8.19025
C          0.49271        2.29321       -8.05967
C          1.21230        1.36729       -8.90064
C          2.26503        0.67916       -8.43917
C          3.03123       -0.28232       -9.16667
C          3.55233       -1.49212       -8.61567
C          3.40312       -2.00772       -7.23284
C          4.21549       -2.10074       -9.65655
O          4.14870       -1.34871      -10.77847
C          3.42595       -0.20785      -10.50427
C          3.20015        0.79191      -11.48577
C          4.09665        1.77321      -11.66756
C          3.97272        2.79727      -12.67899
C          2.93639        3.65173      -12.78359
C          2.79109        4.66841      -13.78288
C          3.63931        4.88198      -14.85044
O          3.19175        5.90843      -15.61789
C          2.04989        6.35647      -15.04955
C          1.74663        5.63665      -13.90536
C          0.57018        5.84998      -13.03246
C         -1.13361        4.75338       -6.93402
C         -2.12682        5.34963       -6.04234
C         -1.91970        6.72846       -5.45403
C         -0.66507        7.45621       -5.95722
C          0.51996        6.54373       -6.27678
C          1.10996        5.88377       -5.02471
O          0.41994        5.65144       -4.02704
C          2.59148        5.54001       -5.06822
F          3.18695        5.91275       -6.23539
F          3.28717        6.15827       -4.07571
F          2.82200        4.20576       -4.93839
C          0.10807        5.51146       -7.32693
H         -2.68475        9.42529      -10.95703
H         -2.77995        8.63316       -9.28370
H         -3.09562       11.60951      -10.00587
H         -2.89582       10.15092       -7.28069
H         -4.10931       12.82886       -8.13726
H         -4.74905       15.11539       -6.92663
H         -2.99059       14.99054       -6.68253
H         -4.00711       15.78635       -5.46651
H         -4.57539       14.14726       -3.33493
H         -4.52795        9.46793       -5.98265
H         -4.97014        9.94072       -2.98204
H         -5.08869        7.69459       -2.63330
H         -4.87269        7.16423       -5.64701
H         -6.42826        6.23490       -1.61001
H         -7.54599        4.90070       -1.87999
H         -7.56692        6.28889       -2.97700
H         -6.02337        2.78086       -2.73738
H         -1.41137        1.97964       -8.90317
H          1.07994        2.76518       -7.27208
H          0.85709        1.23806       -9.91997
H          2.53396        0.79693       -7.38970
H          3.86125       -1.32073       -6.51441
H          3.88170       -2.98620       -7.11537
H          2.34441       -2.11872       -6.97750
H          4.76083       -3.02988       -9.75351
H          2.30181        0.71466      -12.08858
H          5.01539        1.79162      -11.09194
H          4.81249        2.85482      -13.36388
H          2.13950        3.58095      -12.04804
H          4.55103        4.41830      -15.19488
H          1.56973        7.17842      -15.55777
H          0.14437        6.84989      -13.18194
H          0.84205        5.76248      -11.97564
H         -0.20740        5.11362      -13.25354
H         -1.88659        6.64580       -4.36269
H         -2.75151        7.36323       -5.72603
H         -0.37871        8.22247       -5.22947
H         -0.93154        7.99206       -6.87870
H          1.30564        7.18035       -6.69854
H          0.95108        4.85231       -7.52510
H         -0.10906        6.02715       -8.27650
