121

C         -4.26480       -2.03514        2.26815
C         -3.07657       -2.59232        1.93661
C         -2.51335       -3.67273        2.67033
N         -2.04800       -4.55205        3.27244
C         -2.33048       -2.17237        0.79013
N         -1.72757       -1.81140       -0.12247
C         -5.20733       -2.48769        3.34418
C         -6.47021       -1.98237        3.04096
C         -7.60489       -2.13561        3.83001
C         -7.46311       -2.86102        5.02638
C         -6.21168       -3.40910        5.33930
C         -5.06419       -3.22963        4.51298
S         -6.28654       -4.28808        6.82537
C         -7.93419       -3.91699        7.05935
C         -8.43595       -3.13938        6.04331
C         -6.44109       -1.24475        1.78263
O         -7.42606       -1.07598        1.10228
C         -4.98528       -0.97266        1.51065
C         -4.44575        0.13790        0.96462
C         -5.13428        1.28603        0.45923
C         -4.70502        2.60479        0.45064
C         -5.68567        3.57180       -0.02200
C         -5.66893        4.99471       -0.12363
C         -4.42100        5.74987        0.22983
C         -3.50058        5.56210        1.25551
C         -2.43552        6.52255        1.26733
C         -2.57156        7.46004        0.27008
S         -3.85423        7.04772       -0.77524
C         -1.74871        8.67858        0.00369
C         -6.83653        5.67747       -0.57083
C         -7.98457        4.98291       -0.99119
C         -7.96506        3.56932       -0.95596
C         -6.82897        2.89377       -0.46809
S         -6.57503        1.19687       -0.42049
C         -9.13908        2.78703       -1.45320
C         -9.76880        1.66945       -0.91621
C        -10.87930        1.20631       -1.68884
C        -11.11793        2.00808       -2.78040
S         -9.86707        3.15096       -2.98007
C        -12.25380        1.95426       -3.74618
C         -9.01380        5.89936       -1.42513
C         -8.61214        7.20564       -1.47873
S         -7.13699        7.38938       -0.66500
C         -9.30467        8.33441       -2.03050
O         -9.24425        9.53332       -1.39693
C         -9.89931       10.49852       -2.10810
C        -10.41777        9.87360       -3.24431
C        -10.04715        8.49268       -3.19138
C        -10.38011        7.52052       -4.25484
F         -9.98429        6.25320       -3.98904
F        -11.72352        7.45479       -4.46305
F         -9.81607        7.84531       -5.44805
O        -11.00834       10.38557       -4.35539
C        -11.79132       11.54983       -4.19045
C         -9.77123       11.83734       -1.66443
C        -10.75982       12.73608       -1.58746
C        -10.64234       14.17253       -1.28385
C         -9.52795       14.84065       -0.76737
C         -9.52801       16.22948       -0.37895
N         -8.36755       16.72894        0.12198
C         -7.26804       15.93929        0.23388
C         -7.26205       14.65163       -0.25965
N         -8.40461       14.12135       -0.70664
C         -6.03544       13.81991       -0.44856
C         -6.05233       16.53986        0.85931
C        -10.67854       17.06238       -0.51740
C        -11.79019       16.44393       -1.18099
C        -11.74891       14.99384       -1.59624
N        -12.83644       14.61173       -2.29601
S        -13.81210       15.93347       -2.43661
N        -12.98383       16.99093       -1.48080
C        -10.74762       18.48247       -0.02297
C        -10.28797       18.89149        1.26199
C        -10.36113       20.25878        1.71376
N         -9.98663       20.63529        2.93938
C         -9.54449       19.68231        3.78560
C         -9.38910       18.37188        3.36294
N         -9.79667       17.98097        2.12889
C         -8.85902       17.29690        4.25890
C         -9.38677       20.09213        5.21660
C        -10.89787       21.28390        0.96606
C        -11.46742       20.92846       -0.26117
C        -11.37145       19.52368       -0.79404
N        -11.90578       19.44625       -2.02720
S        -12.67587       20.87693       -2.33797
N        -12.15715       21.76937       -1.04632
H         -8.55049       -1.68970        3.53925
H         -4.12082       -3.65989        4.82956
H         -8.46232       -4.27654        7.93197
H         -9.46017       -2.78546        6.01815
H         -3.36640        0.26386        0.99615
H         -3.72540        2.87700        0.82047
H         -3.57559        4.77879        1.99762
H         -1.63175        6.54035        1.99491
H         -0.97583        8.81269        0.76886
H         -2.37121        9.58141        0.00885
H         -1.24991        8.60978       -0.96821
H         -9.45624        1.17963       -0.00132
H        -11.48988        0.34948       -1.42864
H        -12.82911        1.02976       -3.62660
H        -11.90527        2.00061       -4.78245
H        -12.93908        2.79268       -3.57402
H         -9.99296        5.59380       -1.76568
H        -12.36998       11.71437       -5.10253
H        -11.15387       12.42941       -4.07194
H        -12.51754       11.42299       -3.38217
H         -8.75912       12.06891       -1.34453
H        -11.78165       12.40338       -1.77680
H         -5.49200       13.66872        0.48660
H         -5.38209       14.29894       -1.18495
H         -6.29645       12.83091       -0.84669
H         -6.33036       17.37746        1.50489
H         -5.37715       16.89117        0.07792
H         -5.53063       15.80921        1.48813
H         -8.02327       17.65853        4.86674
H         -8.48500       16.45413        3.66793
H         -9.65622       16.93916        4.91533
H         -9.60702       21.15807        5.34043
H         -8.37469       19.90699        5.58343
H        -10.10664       19.53810        5.82898
H        -10.94503       22.29964        1.34076
