115

C         -0.99094        1.14510        1.12553
C         -0.37550        0.79511        2.33437
C         -0.85219       -0.27394        3.10172
C         -1.98660       -0.97879        2.70494
C         -2.64130       -0.58345        1.54574
C         -2.11758        0.44590        0.71251
C         -2.94741        0.51148       -0.54753
C         -2.96185        1.49129       -1.47325
C         -2.12466        2.64467       -1.40112
N         -1.44997        3.58437       -1.34519
C         -3.87298        1.47863       -2.57212
N         -4.60871        1.45638       -3.46892
C         -3.83955       -0.69109       -0.48480
C         -3.91988       -1.05427        0.94643
C         -5.03629       -1.34747        1.64010
C         -6.33181       -1.26100        1.04701
N         -7.38931       -1.12682        0.58670
C         -5.03324       -1.56036        3.04189
N         -5.02211       -1.74270        4.18945
C         -4.17780       -1.49521       -1.51754
C         -4.65895       -2.83566       -1.35509
C         -5.94185       -3.33411       -1.39558
C         -6.06549       -4.78317       -1.29672
C         -7.20313       -5.65208       -1.31160
C         -8.57020       -5.08503       -1.51835
C         -9.78723       -5.43255       -0.94448
C        -10.88841       -4.65554       -1.40813
C        -10.49116       -3.65114       -2.25759
S         -8.85805       -3.85785       -2.70655
C        -11.29893       -2.52609       -2.81242
Cl       -12.49355       -4.94796       -0.89255
C         -7.04065       -7.05209       -1.11052
C         -5.76793       -7.62330       -0.99223
C         -4.63642       -6.76163       -1.02848
C         -4.79444       -5.35810       -1.14974
S         -3.57100       -4.11768       -1.11555
C         -3.29182       -7.35936       -0.81400
C         -2.89840       -8.30990        0.11749
C         -1.51146       -8.62648        0.05870
C         -0.84193       -7.84379       -0.85367
S         -1.94573       -6.95846       -1.81561
C          0.62758       -7.70484       -1.07453
Cl        -0.80745       -9.80077        1.08421
C         -5.86939       -9.07061       -0.85978
C         -7.14538       -9.55778       -0.65063
S         -8.25024       -8.30234       -0.98355
C         -7.55016      -10.91279       -0.24907
S         -9.06944      -11.58563       -0.73384
C         -8.81991      -13.09950        0.06532
C         -7.56107      -13.09767        0.65499
C         -6.86918      -11.83758        0.54013
S         -5.30359      -11.52124        1.33229
C         -5.04282      -12.92963        2.30814
O         -4.72642      -12.97587        3.47903
C         -5.16743      -14.10245        1.36750
O         -4.28152      -14.65147        0.74847
S         -6.84033      -14.52288        1.44117
C         -9.84406      -14.11387       -0.03447
C        -10.09201      -14.97686        0.97035
C        -11.02493      -16.13738        1.04553
C        -11.50652      -16.60608        2.28311
C        -12.31771      -17.79608        2.42902
N        -12.69936      -18.15045        3.67744
C        -12.37038      -17.37490        4.74493
C        -11.60048      -16.25641        4.59271
N        -11.16295      -15.87744        3.36925
C        -11.19943      -15.42402        5.68570
N        -10.87168      -14.76035        6.57968
C        -12.91421      -17.77349        6.00864
N        -13.36049      -18.06455        7.03982
C        -12.71636      -18.59674        1.32398
C        -12.27052      -18.12928        0.03848
C        -11.39057      -16.89633       -0.09423
N        -11.00636      -16.66697       -1.36213
S        -11.69700      -17.82819       -2.30850
N        -12.54150      -18.66253       -1.16696
C        -13.48560      -19.88723        1.44719
S        -13.06734      -21.20436        0.38457
C        -14.20139      -22.26908        1.05780
C        -14.82419      -21.71836        2.14657
C        -14.47128      -20.33351        2.33985
C        -15.12581      -19.61953        3.49236
C        -16.58701      -20.05305        3.78340
C        -16.96441      -21.50421        3.38793
C        -15.77294      -22.40620        3.07564
C        -16.89725      -19.80326        5.24670
C        -17.45905      -18.68004        5.71240
H         -0.54884        1.95458        0.55474
H          0.49710        1.34996        2.67638
H         -0.33802       -0.55159        4.02012
H         -2.32836       -1.81387        3.30909
H         -3.95423       -1.21486       -2.54419
H         -6.78387       -2.66276       -1.49886
H         -9.90875       -6.21868       -0.21200
H        -12.06157       -2.90139       -3.50105
H        -10.68437       -1.79355       -3.34613
H        -11.80510       -1.99049       -2.00016
H         -3.57595       -8.75882        0.83221
H          1.14582       -8.65807       -0.93316
H          1.04000       -6.98813       -0.35378
H          0.86438       -7.34226       -2.07960
H         -4.99971       -9.71316       -0.84060
H        -10.42162      -14.15802       -0.95500
H         -9.55112      -14.83977        1.90546
H        -14.32149      -23.26757        0.65877
H        -15.13039      -18.53784        3.32085
H        -14.51117      -19.82124        4.38028
H        -17.24151      -19.40157        3.18643
H        -17.59277      -21.45285        2.48789
H        -17.58930      -21.98405        4.15276
H        -16.12675      -23.35092        2.64626
H        -15.24162      -22.65460        4.00335
H        -16.62459      -20.58177        5.95873
H        -17.72875      -17.85947        5.05556
H        -17.64341      -18.55240        6.77550
