106

C          3.64794        1.79836      -10.53595
C          2.90421        2.32136       -9.51079
C          3.47698        2.11852       -8.19622
C          2.97466        2.38045       -6.88942
C          1.54890        2.79458       -6.71203
C          0.98120        3.70865       -5.83507
C         -0.42640        3.86835       -5.99889
C         -0.91274        3.12933       -7.05172
S          0.28012        2.05022       -7.62842
C         -2.27776        3.15212       -7.65536
Cl        -1.34765        4.92186       -5.01447
C          3.83680        2.28538       -5.76749
C          5.19411        1.96437       -5.92137
C          5.64560        1.53677       -7.19927
C          4.77988        1.60512       -8.31606
S          5.06383        1.08014       -9.95246
C          7.04137        1.03655       -7.37560
C          7.93511        1.22864       -8.42158
C          9.18187        0.56254       -8.24168
C          9.26434       -0.06239       -7.02265
S          7.75795       -0.03069       -6.21666
C         10.44307       -0.74228       -6.40450
Cl        10.41675        0.60044       -9.42720
C          5.90295        2.19274       -4.67440
C          5.09457        2.45989       -3.59163
S          3.46703        2.47055       -4.08007
C          5.48854        2.68797       -2.21573
C          4.77951        2.38918       -1.06646
C          5.47607        2.75054        0.12850
C          6.70165        3.34498       -0.12169
S          6.99227        3.41527       -1.81537
C          7.64805        3.82852        0.86278
C          7.83389        3.34822        2.16575
C          8.83939        4.06520        2.85742
C          9.34845        5.07133        2.06770
S          8.70513        5.17229        0.54128
C         10.33187        5.76215        2.79399
C         10.45776        5.21063        4.05212
C          9.52019        4.09620        4.17154
C          9.31753        3.26678        5.21870
C          8.31120        2.14557        5.01722
N          7.47637        1.21543        4.85007
C         10.06047        3.39307        6.53873
N         10.67680        3.49783        7.63381
C         11.46081        5.86064        4.80265
C         12.06520        6.88104        4.05720
S         11.34014        7.03924        2.48092
C         13.15131        7.74520        4.46060
C         13.46482        8.17869        5.73287
C         14.61500        9.03220        5.75538
C         15.17670        9.21670        4.50280
S         14.27716        8.35358        3.32545
C         16.34433       10.00318        4.15331
C         17.11320       10.79293        4.97930
C         18.24774       11.42745        4.33019
C         19.32003       12.20017        4.84426
C         19.48807       12.34824        6.31495
C         19.80072       13.47499        7.06382
C         19.88171       13.22555        8.46307
C         19.55524       11.92658        8.78015
S         19.38053       10.98099        7.36667
C         19.38040       11.31722       10.13030
Cl        20.29408       14.44982        9.58536
C         20.22211       12.84438        3.96657
C         20.05751       12.78555        2.57257
C         19.03712       11.93162        2.05331
C         18.18630       11.23450        2.94387
S         16.99613       10.03312        2.58297
C         18.83332       11.79390        0.57556
C         17.65246       11.62593       -0.14354
C         17.83890       11.54356       -1.55164
C         19.14496       11.74740       -1.91358
S         20.15810       11.73816       -0.53519
C         19.71541       11.92368       -3.28030
Cl        16.53391       11.28429       -2.63299
C         20.98619       13.68875        1.92676
C         21.90428       14.25008        2.77476
S         21.65115       13.75439        4.36838
H          3.41723        1.78737      -11.59618
H          1.95930        2.81521       -9.70438
H          1.54377        4.27097       -5.10096
H         -3.00641        2.68335       -6.98788
H         -2.31385        2.63820       -8.62199
H         -2.59411        4.18742       -7.83351
H          7.71516        1.81809       -9.30124
H         10.67166       -1.67320       -6.93275
H         10.28503       -0.97500       -5.34839
H         11.32571       -0.09255       -6.46348
H          6.97946        2.12980       -4.57925
H          3.80267        1.91890       -1.07015
H          5.07816        2.59176        1.12342
H          7.25731        2.51363        2.54639
H         11.77508        5.60956        5.80761
H         12.89323        7.91697        6.61536
H         15.00537        9.47974        6.66091
H         16.89005       10.90413        6.03300
H         19.97228       14.45283        6.63126
H         20.28817       11.43205       10.73001
H         19.13778       10.25083       10.08164
H         18.55745       11.81601       10.65880
H         16.67515       11.56619        0.30672
H         19.66500       10.98897       -3.84751
H         20.75432       12.26177       -3.25951
H         19.14101       12.68139       -3.83002
H         21.01273       13.90470        0.86696
H         22.71687       14.91773        2.52194
