111

C          1.13739       -2.66765        0.94082
C          1.62295       -2.00683        2.06269
C          1.29882       -0.63529        2.00469
C          0.59524       -0.32700        0.85927
S          0.30180       -1.61426       -0.15103
C          0.31375        1.05454        0.85464
C          0.83842        1.62036        1.99500
C          1.48782        0.58134        2.79596
C          2.10740        0.71037        3.98527
C          2.20747        1.96665        4.64382
N          2.28741        2.99352        5.17877
C          2.68989       -0.40462        4.64895
N          3.16569       -1.31315        5.19176
C          0.59950        3.00981        2.03853
C         -0.09981        3.43867        0.90745
S         -0.45945        2.11492       -0.16106
C         -0.51229        4.78680        0.58479
C         -0.69715        5.34907       -0.68163
C         -1.08562        6.70294       -0.58863
C         -1.18881        7.10188        0.72363
S         -0.84053        5.93517        1.84812
C         -1.56838        8.45591        0.76030
C         -1.70149        8.92250       -0.52645
C         -1.41424        7.83337       -1.46153
C         -1.45541        7.86262       -2.80762
C         -1.80446        9.04259       -3.51968
N         -2.09181       10.00717       -4.09852
C         -1.16142        6.71117       -3.58682
N         -0.92191        5.76862       -4.21995
C         -2.05804       10.28826       -0.54409
C         -2.17133       10.79964        0.75211
S         -1.87929        9.56457        1.94743
C         -2.50111       12.16843        1.18780
C         -1.98298       12.68416        2.38780
C         -2.31705       13.97195        2.77269
C         -3.15954       14.77386        1.97614
C         -3.66829       14.29201        0.78487
C         -3.33540       12.98872        0.39467
C         -3.33915       16.05270        2.62107
C         -2.61028       16.05860        3.82823
C         -1.87868       14.73293        4.02487
C         -0.33828       14.96136        4.05772
C          0.26278       15.59159        2.79865
C         -2.33835       14.03365        5.33635
C         -3.82897       13.69777        5.41810
C         -2.60261       17.15875        4.66331
C         -3.32514       18.28656        4.27346
C         -4.06318       18.27851        3.07135
C         -4.06833       17.16106        2.23404
C         -3.37013       19.48164        5.11086
C         -2.35273       19.88925        5.88466
C         -2.45416       21.08009        6.65115
C         -3.51095       21.98779        6.75623
C         -3.20418       23.03636        7.63565
C         -1.94113       22.89362        8.15613
S         -1.10316       21.56328        7.63645
C         -1.69211       23.95903        9.03601
C         -2.79669       24.77906        9.07409
C         -3.82418       24.24030        8.18034
C         -5.05150       24.72919        7.91640
C         -5.51754       25.92023        8.53079
N         -5.89504       26.89559        9.03830
C         -5.93886       24.08145        7.01286
N         -6.66350       23.55189        6.27452
C         -2.59353       25.86186        9.95461
C         -1.32909       25.79709       10.54719
S         -0.42818       24.41837        9.99954
C         -0.74711       26.70670       11.50448
C          0.18975       26.41009       12.49713
C          0.50074       27.55442       13.25825
C         -0.18582       28.65946       12.80835
S         -1.18386       28.38687       11.51215
C          0.14465       29.76309       13.61874
C          1.04031       29.35540       14.58505
C          1.32580       27.93023       14.40638
C          2.15089       27.14719       15.12847
C          2.89208       27.66074       16.22896
N          3.49516       28.08004       17.12605
C          2.32650       25.76721       14.82948
N          2.46595       24.64138       14.58247
C          1.39205       30.41703       15.44463
C          0.73383       31.58277       15.07053
S         -0.28951       31.36560       13.69086
H          1.22884       -3.71810        0.69880
H          2.17144       -2.51920        2.84353
H          0.91902        3.68820        2.82071
H         -0.53620        4.79278       -1.59717
H         -2.20932       10.90132       -1.42415
H         -1.32095       12.09897        3.01746
H         -4.31461       14.90197        0.16288
H         -3.75030       12.61376       -0.53849
H          0.17719       14.00695        4.22704
H         -0.07793       15.60454        4.90984
H          0.12751       14.94706        1.92471
H          1.33985       15.73758        2.93266
H         -0.17619       16.56981        2.57990
H         -2.08801       14.66622        6.19949
H         -1.77950       13.09868        5.47269
H         -4.45786       14.58660        5.31003
H         -4.05663       13.25308        6.39268
H         -4.11680       12.97199        4.65121
H         -2.04267       17.13058        5.59196
H         -4.63048       19.15826        2.77238
H         -4.62788       17.17698        1.30577
H         -4.29903       20.03824        5.04125
H         -1.42288       19.32625        5.93127
H         -4.43864       21.85902        6.21524
H         -3.30539       26.64802       10.17611
H          0.58563       25.41299       12.65083
H          2.06695       30.37987       16.29079
H          0.79361       32.55789       15.53474
