84

C          4.19911        5.71414        6.54249
C          3.08104        6.53403        6.79024
F          2.66176        6.78035        8.06317
C          2.39083        7.10523        5.72343
C          2.86462        6.94367        4.41220
C          4.06529        6.23155        4.14911
C          4.70189        5.54546        5.21505
C          5.81311        4.70544        4.90515
C          6.36805        4.68364        3.57682
C          5.89101        5.52516        2.60957
C          4.66829        6.22926        2.85012
C          6.79636        5.39479        1.40982
O          6.68302        6.04576        0.38343
C          7.60181        4.12829        1.55547
C          7.36071        3.67679        2.99129
C          6.77429        2.49885        2.88809
C          5.70711        2.43810        1.84440
N          4.92255        2.63728        1.01162
C          7.44065        1.41107        3.56846
N          8.05382        0.62838        4.16260
C          8.12941        3.34063        0.45849
C          8.59696        1.79520        0.20102
C          9.62051        1.64581       -0.76970
C         10.35866        0.45714       -1.00615
C         10.10509       -0.71153       -0.29524
C          8.88737       -0.71781        0.41325
C          8.14192        0.46259        0.64677
N          6.99179        0.17443        1.28145
Se         6.74685       -1.56987        1.64404
N          8.34285       -1.85098        0.90547
C         11.10898       -1.85379       -0.25271
C         11.13585       -2.66211        0.90031
N         12.03931       -3.65210        1.04527
C         12.91589       -3.94680        0.05748
N         13.00634       -3.12478       -1.01574
C         12.14789       -2.08756       -1.19205
C         14.05654       -4.81391        0.30298
C         14.62488       -5.62765       -0.66365
C         15.93974       -6.10969       -0.51624
C         16.77704       -5.68785        0.56650
C         16.08641       -4.86346        1.51984
C         14.77322       -4.49996        1.40415
N         14.30538       -3.62357        2.30595
Se        15.61951       -2.87826        3.17430
N         16.61393       -4.23338        2.54583
C         18.29256       -6.06408        0.50535
C         19.38878       -5.83952        1.33932
C         20.71655       -6.37901        1.09004
O         21.05762       -7.03572        0.11826
C         21.56561       -6.10766        2.23129
C         22.91939       -6.34581        2.24249
C         23.67009       -6.05393        3.36411
C         23.03348       -5.64263        4.56675
C         23.88248       -5.49214        5.71047
C         25.29257       -5.62736        5.58955
C         25.87447       -5.91068        4.35535
C         25.06482       -6.15589        3.26176
F         26.11277       -5.45135        6.65840
C         21.60332       -5.34910        4.53298
C         20.87643       -5.52198        3.28666
C         19.52808       -5.10994        2.65045
C         19.06985       -3.83017        2.73386
C         18.79199       -3.10417        1.48439
N         18.58724       -2.56154        0.47973
C         18.68607       -3.13400        3.94553
N         18.34332       -2.48147        4.83964
H          4.68466        5.26218        7.40125
H          1.50436        7.70704        5.91920
H          2.30494        7.41602        3.61609
H          6.22090        4.07387        5.68918
H          4.18125        6.77568        2.05678
H          8.26849        3.93910       -0.44221
H          9.91895        2.50254       -1.32117
H         11.19420        0.49928       -1.68513
H         10.48429       -2.46833        1.73144
H         12.30745       -1.46981       -2.06177
H         14.07275       -5.82600       -1.56314
H         16.28789       -6.72455       -1.32701
H         18.56338       -6.65209       -0.38268
H         23.39394       -6.71458        1.34617
H         23.49396       -5.24911        6.69073
H         26.95458       -5.95824        4.23648
H         25.53028       -6.39407        2.31090
H         21.12703       -4.95077        5.42473
