117

C          9.36090       -1.82700       -8.63881
C          9.29203       -1.73745      -10.01913
F          9.81064       -2.72115      -10.76504
C          8.66526       -0.66188      -10.63556
C          8.13366        0.37537       -9.86232
C          8.17337        0.31106       -8.46115
C          8.76000       -0.84025       -7.85510
C          8.69353       -1.01909       -6.47566
C          7.99331       -0.09794       -5.72150
C          7.59688        1.11630       -6.28368
C          7.65029        1.33825       -7.64948
C          7.26519        2.06274       -5.19298
O          6.89274        3.20810       -5.31468
C          7.58654        1.31151       -3.90796
C          7.63922       -0.09639       -4.29095
C          7.26065       -1.20129       -3.60719
C          7.25264       -2.49610       -4.21358
N          7.27121       -3.54108       -4.71667
C          6.85374       -1.14777       -2.25112
N          6.62276       -1.10064       -1.11339
C          8.02594        2.01196       -2.84705
C          8.68684        1.58556       -1.58902
C          8.44348        2.30239       -0.40449
C          7.64386        3.51272       -0.11568
O          7.05743        4.15762       -0.96594
N          7.72897        3.75936        1.24188
C          8.55802        2.84940        1.84807
O          8.93501        2.72488        2.99888
C          9.00153        1.92812        0.81556
C          9.82718        0.83727        0.97515
C         10.11213        0.13984       -0.18310
C          9.61141        0.52254       -1.44022
C         10.25427       -0.30143       -2.47724
O         10.29138       -0.03852       -3.66262
S         11.04224       -1.71470       -1.81295
C         10.94815       -1.05636       -0.20704
O         11.49401       -1.53133        0.77294
C          7.05610        4.79571        1.86480
C          7.10116        5.05210        3.18304
C          6.39299        6.15453        3.83205
C          5.11454        6.00777        4.37512
C          4.22336        4.84624        4.51633
O          4.42206        3.77423        3.97330
N          3.18077        5.23284        5.34530
C          3.22318        6.57825        5.58816
O          2.44674        7.33084        6.14441
C          4.47907        7.05464        5.03393
C          5.04063        8.30061        5.19799
C          6.32154        8.44540        4.69144
C          6.99641        7.40783        4.03636
C          8.37250        7.80427        3.69624
O          9.21083        7.07861        3.19577
S          8.69398        9.47140        4.14292
C          7.10722        9.66202        4.83353
O          6.69202       10.67051        5.37455
C          2.20745        4.35668        5.76775
C          1.08754        4.65144        6.44973
C         -0.00878        3.68409        6.65978
C         -0.39713        2.75811        5.67305
C          0.09103        2.49580        4.29971
O          0.94905        3.14909        3.73987
N         -0.62522        1.43968        3.78948
C         -1.61390        1.06683        4.65976
O         -2.51031        0.25336        4.52070
C         -1.45079        1.86977        5.86653
C         -2.18313        1.81670        7.03574
C         -1.82258        2.73173        8.01632
C         -0.79292        3.66854        7.83542
C         -0.71387        4.57413        8.99815
O         -0.05971        5.59722        9.05166
S         -1.75179        4.04489       10.31145
C         -2.46602        2.80279        9.32484
O         -3.37011        2.06608        9.67370
C         -0.44776        0.85388        2.55218
C          0.52074        1.15112        1.67184
C          0.66858        0.49854        0.39530
C         -0.21901        0.45847       -0.60716
C          0.02519       -0.54932       -1.68692
O          1.06489       -1.10642       -1.97478
C         -1.29151       -0.79439       -2.29366
C         -1.57515       -1.75801       -3.24492
C         -2.89820       -1.88277       -3.67495
C         -3.90889       -1.05534       -3.10406
C         -5.23212       -1.19718       -3.54593
C         -5.54296       -2.12274       -4.53358
C         -4.56441       -2.92938       -5.09795
C         -3.24249       -2.81519       -4.66469
F         -6.80865       -2.23273       -4.95466
C         -3.58014       -0.10158       -2.12105
C         -2.25801        0.05799       -1.73508
C         -1.56901        1.00720       -0.81221
C         -2.01493        2.24009       -0.46690
C         -1.18972        3.22982        0.12802
N         -0.54305        4.07502        0.59513
C         -3.33385        2.70219       -0.79652
N         -4.39503        3.07421       -1.05549
H          9.84573       -2.69110       -8.19176
H          8.59182       -0.64091      -11.71790
H          7.65495        1.21369      -10.36304
H          9.17226       -1.87622       -6.00965
H          7.29409        2.27515       -8.06801
H          7.92180        3.09898       -2.92867
H         10.23285        0.55721        1.94286
H          6.45536        5.40898        1.19378
H          7.70777        4.45577        3.85894
H          4.52646        9.09116        5.73583
H          2.40032        3.34010        5.43379
H          0.91735        5.65661        6.83118
H         -2.99578        1.10849        7.17278
H         -1.17309        0.07375        2.32149
H          1.30418        1.87781        1.88647
H          1.61400       -0.03757        0.29094
H         -0.77948       -2.38932       -3.63264
H         -6.03198       -0.58442       -3.13838
H         -4.83342       -3.64008       -5.87190
H         -2.48457       -3.45337       -5.11371
H         -4.37774        0.49428       -1.68803
