145

C         -0.89631       -2.35355        0.84986
C         -0.56196       -1.80850       -0.36068
C          0.67406       -1.05560       -0.34463
C          1.28501       -0.24809       -1.34165
C          0.58141       -0.03351       -2.64670
C         -0.77419        0.09056       -2.92768
C         -1.06582        0.29010       -4.31078
C          0.07314        0.38067       -5.07541
S          1.45353        0.00201       -4.14453
C          0.21634        0.72980       -6.52044
Cl        -2.67089        0.43865       -4.88756
C          2.53867        0.34719       -1.08265
C          3.28483        0.02249        0.05706
C          2.64421       -0.70132        1.10506
C          1.33238       -1.20837        0.89473
S          0.29026       -2.04324        2.01218
C          3.35559       -0.89902        2.41673
C          3.29745       -1.93014        3.35003
C          4.17974       -1.76337        4.46418
C          4.92411       -0.61137        4.37410
S          4.41084        0.32940        3.04773
C          6.02196       -0.12528        5.26479
Cl         4.28727       -2.91647        5.72624
C          4.65283        0.46732       -0.13192
C          4.84845        1.29838       -1.21016
S          3.35501        1.60149       -1.95585
C          6.06651        1.96002       -1.62962
S          7.24315        2.35157       -0.46432
C          8.21184        3.23045       -1.57137
C          7.63557        3.22505       -2.83910
C          6.49315        2.32581       -2.89408
C          5.85256        1.94773       -4.21313
N          5.72441        0.49500       -4.25959
C          6.68311        2.40073       -5.42442
C          7.14000        3.84504       -5.24948
C          8.12476        3.96716       -4.07002
N          8.27666        5.38518       -3.74791
C          9.45207        3.80641       -1.13791
C          9.63365        4.21716        0.12974
C         10.84928        4.76763        0.61088
C         11.34968        4.72723        1.89424
C         12.62449        5.39658        2.08382
C         13.46383        5.54969        3.22640
C         13.11266        4.88233        4.52772
C         13.25173        5.32486        5.84104
C         12.81993        4.38498        6.82663
C         12.32448        3.23188        6.26587
S         12.50730        3.25877        4.56720
C         11.72751        2.04003        6.94285
Cl        12.92608        4.70945        8.50566
C         14.63272        6.35272        3.12994
C         15.01109        6.97137        1.92185
C         14.19297        6.77942        0.77664
C         13.01580        6.00420        0.88020
S         11.86370        5.69833       -0.36693
C         14.53898        7.40461       -0.54535
C         14.40815        6.89836       -1.83706
C         14.77997        7.81243       -2.86465
C         15.26276        8.99370       -2.35532
S         15.08769        9.04045       -0.65687
C         15.81755       10.16747       -3.09093
Cl        14.62971        7.42954       -4.52705
C         16.23940        7.71572        2.10160
C         16.73209        7.71350        3.38236
S         15.79188        6.72188        4.37389
C         17.90043        8.39287        3.86008
N         18.97740        8.66416        3.04660
C         19.97175        9.26558        3.76362
C         19.51639        9.44322        5.04911
C         18.21062        8.89068        5.11338
C         21.24191        9.61745        3.21551
C         22.29812        9.90069        2.76121
C         23.58546       10.27339        2.24232
C         24.03326       10.05374        0.97109
C         25.35697       10.59581        0.69995
C         26.12834       10.66706       -0.49945
C         25.50474       10.21329       -1.79073
C         24.17838       10.24351       -2.21430
C         23.97769        9.77678       -3.55046
C         25.15852        9.42391       -4.15715
S         26.43676        9.44620       -3.03170
C         25.42590        9.03216       -5.57222
Cl        22.42809        9.73590       -4.27649
C         27.44813       11.20424       -0.45570
C         28.04465       11.60356        0.75644
C         27.24764       11.59205        1.93610
C         25.91582       11.10899        1.88489
S         24.73787       11.08466        3.16439
C         27.80286       12.10240        3.23283
C         27.58623       11.67325        4.53868
C         28.27518       12.43690        5.52692
C         29.04575       13.42956        4.97124
S         28.81772       13.50253        3.28265
C         29.95827       14.40184        5.64049
Cl        28.12225       12.10637        7.19983
C         29.44094       11.94239        0.54225
C         29.83237       11.93184       -0.76850
S         28.54460       11.53662       -1.77571
H         -1.78908       -2.91376        1.09447
H         -1.20831       -1.92128       -1.22085
H         -1.54916        0.04968       -2.17408
H         -0.62284        0.34715       -7.10985
H          1.13529        0.32240       -6.95435
H          0.24246        1.81946       -6.64040
H          2.66483       -2.80166        3.25174
H          5.69338       -0.08832        6.30844
H          6.36785        0.87724        4.99044
H          6.88617       -0.79727        5.20325
H          5.46866        0.19564        0.52615
H          4.86689        2.41652       -4.27842
H          6.63905        0.06566       -4.13457
H          5.38145        0.20390       -5.17200
H          6.07803        2.30722       -6.33542
H          7.56693        1.76218       -5.56275
H          6.25423        4.47698       -5.09125
H          7.61657        4.19768       -6.17249
H          9.09806        3.55814       -4.36657
H          7.38806        5.74146       -3.39477
H          8.47040        5.91140       -4.59770
H         10.23383        3.89478       -1.88186
H          8.83725        4.12408        0.86428
H         10.80175        4.21997        2.67918
H         13.65919        6.28935        6.11464
H         12.30334        1.76770        7.83377
H         11.70632        1.16261        6.28826
H         10.69824        2.24968        7.25663
H         14.02359        5.91178       -2.06348
H         16.52190        9.84332       -3.86581
H         16.35823       10.85175       -2.42888
H         15.00976       10.72513       -3.57475
H         16.72892        8.27454        1.31892
H         19.04288        8.41526        2.06922
H         20.06309        9.90441        5.86391
H         17.57103        8.85696        5.98570
H         23.41835        9.53852        0.24624
H         23.35936       10.61387       -1.61342
H         24.59298        8.46358       -5.99614
H         26.32570        8.41425       -5.66181
H         25.57404        9.92861       -6.18600
H         26.94130       10.84617        4.80482
H         29.53786       14.74137        6.59216
H         30.12783       15.29034        5.02340
H         30.93111       13.93904        5.84103
H         30.14542       12.20966        1.31747
H         30.80845       12.16741       -1.17152
