138

C         -2.48721        1.75348        4.04380
C         -2.76215        2.66092        5.00087
C         -4.03383        2.72441        5.63240
N         -5.08997        2.76297        6.11730
C         -1.74719        3.52370        5.52549
N         -0.92691        4.20363        5.98132
C         -3.34835        0.63829        3.60369
C         -2.50683       -0.44222        3.29328
C         -2.99136       -1.66838        2.88178
C         -4.37050       -1.78238        2.65573
C         -5.22399       -0.65175        2.83195
C         -4.70577        0.55408        3.34032
C         -6.57404       -0.75517        2.46509
C         -7.08888       -1.95513        1.97171
C         -6.26830       -3.07412        1.86070
C         -4.91756       -2.98865        2.19945
C         -1.09296        0.01270        3.26043
O         -0.10837       -0.65609        3.03601
C         -1.18865        1.50286        3.42240
C         -0.40801        2.30481        2.67637
C         -0.73303        3.69259        2.28354
C         -2.05905        4.07976        2.02187
C         -2.33224        5.39004        1.66862
C         -1.29150        6.30778        1.44103
C          0.02691        5.93214        1.63903
C          0.30128        4.62410        2.07029
C         -1.86475        7.55438        0.98195
C         -3.27162        7.43834        0.95027
C         -3.69316        6.06035        1.46338
C         -4.58920        5.29845        0.45312
C         -3.96100        5.03425       -0.91420
C         -4.45056        6.22387        2.81745
C         -3.65581        6.89201        3.94442
C         -4.08423        8.48909        0.53863
C         -3.48290        9.68703        0.13175
C         -2.06993        9.78505        0.16508
C         -1.25782        8.72937        0.59360
C         -4.31710       10.81241       -0.32683
C         -5.56595       10.79253       -0.96022
C         -6.02167       12.10054       -1.23750
C         -5.12177       13.04021       -0.79462
S         -3.76591       12.44220       -0.06388
C         -5.61820       14.32208       -1.07907
C         -6.83411       14.20631       -1.70377
C         -7.16446       12.78786       -1.84551
C         -8.26340       12.24833       -2.40297
C         -9.29949       13.05302       -2.95117
N        -10.14189       13.71342       -3.39788
C         -8.44421       10.84524       -2.46820
N         -8.59253        9.69563       -2.51202
C         -7.37647       15.47337       -2.00242
C         -6.53432       16.51122       -1.58034
S         -5.09488       15.86720       -0.83106
C         -6.71644       17.97761       -1.70118
C         -7.87871       18.49976       -2.29867
C         -8.00931       19.87692       -2.43947
C         -7.01862       20.75781       -1.95861
C         -5.87968       20.27263       -1.35671
C         -5.73287       18.88882       -1.23899
C         -7.40319       22.11982       -2.23962
C         -8.61576       22.11074       -2.94539
C         -9.15268       20.67915       -3.06945
C         -9.40872       20.31257       -4.55926
C         -8.18789       20.35796       -5.48121
C        -10.46465       20.50983       -2.23971
C        -10.33414       20.72589       -0.72663
C         -9.16210       23.28719       -3.43544
C         -8.55559       24.51372       -3.12970
C         -7.35626       24.50925       -2.38477
C         -6.77127       23.31416       -1.94483
C         -9.06240       25.80321       -3.65133
C        -10.33689       26.17749       -3.86683
C        -10.86444       27.37943       -4.56112
C        -10.35002       28.63220       -4.52145
C        -11.01474       29.75204       -5.09879
N        -11.56181       30.66342       -5.56312
C         -9.14480       28.93922       -3.82371
N         -8.15975       29.18523       -3.26236
C        -12.18924       26.98057       -5.13430
C        -12.54485       25.74858       -4.57382
C        -11.52948       25.30523       -3.62063
O        -11.70322       24.44555       -2.78292
C        -13.68785       25.04022       -4.90159
C        -14.56135       25.60464       -5.82887
C        -14.26000       26.87332       -6.40101
C        -13.05828       27.54429       -6.06086
C        -15.18209       27.43343       -7.29927
C        -16.36035       26.75956       -7.63419
C        -16.63240       25.50800       -7.08917
C        -15.73617       24.93170       -6.19167
H         -2.30557       -2.48406        2.67248
H         -5.35772        1.41537        3.46479
H         -7.23829        0.10390        2.54273
H         -8.13343       -2.01720        1.67574
H         -6.67576       -4.01290        1.49413
H         -4.29174       -3.87203        2.08802
H          0.46960        1.88481        2.18386
H         -2.88241        3.37737        2.06790
H          0.83927        6.63144        1.46925
H          1.33944        4.33700        2.22932
H         -5.52202        5.85554        0.29493
H         -4.88342        4.32973        0.87864
H         -3.66452        5.96236       -1.41116
H         -4.68332        4.52738       -1.56258
H         -3.08277        4.38646       -0.83629
H         -4.78725        5.24413        3.17976
H         -5.35923        6.81913        2.65377
H         -2.85183        6.24189        4.30160
H         -4.31141        7.10250        4.79500
H         -3.21470        7.84351        3.63336
H         -5.16413        8.37553        0.55392
H         -1.57291       10.69815       -0.15551
H         -0.17980        8.84286        0.60807
H         -6.08157        9.87157       -1.20340
H         -8.32302       15.65037       -2.49546
H         -8.67618       17.85608       -2.65472
H         -5.10425       20.93774       -0.99482
H         -4.81332       18.54079       -0.77554
H        -10.16392       20.99218       -4.97700
H         -9.83890       19.30551       -4.62630
H         -7.68746       21.33083       -5.46103
H         -8.49805       20.17311       -6.51575
H         -7.45754       19.58666       -5.21835
H        -10.86835       19.49895       -2.38806
H        -11.22868       21.20235       -2.61594
H         -9.85354       19.86620       -0.24735
H        -11.32444       20.83591       -0.27232
H         -9.76046       21.62307       -0.47701
H        -10.05596       23.22664       -4.04434
H         -6.85416       25.44524       -2.14486
H         -5.84263       23.33152       -1.38490
H         -8.24623       26.46669       -3.92937
H        -13.87895       24.07501       -4.44175
H        -12.84335       28.49230       -6.54452
H        -14.99815       28.41065       -7.74160
H        -17.06874       27.21403       -8.32262
H        -17.54587       24.98214       -7.35568
H        -15.96741       23.95447       -5.77221
