93

C          9.75684       -6.68688        7.67646
C          9.80083       -6.02568        6.51797
C         10.68196       -4.93268        6.20665
C         10.46139       -4.39890        4.99616
C          9.39153       -5.04613        4.25211
S          8.74932       -6.40460        5.18762
C          8.90202       -4.66948        3.05485
C          9.29368       -3.50843        2.27575
C          8.46488       -3.24012        1.25430
C          7.35156       -4.16279        1.15831
S          7.60596       -5.52037        2.22260
C          6.28692       -3.96893        0.36586
C          5.12338       -4.78609        0.33446
O          4.46126       -5.07502       -0.86392
C          4.35932       -5.36768        1.31926
C          4.21964       -5.49257        2.74260
O          4.80987       -4.89267        3.62383
N          3.15117       -6.35188        2.91005
C          2.49296       -6.65440        1.73863
O          1.44265       -7.25142        1.60116
C          3.29849       -6.04622        0.72581
C          3.32710       -5.84015       -0.62461
C          2.38058       -6.25456       -1.58815
C          2.49586       -5.99474       -2.89785
C          1.45804       -6.38798       -3.79810
S          1.86130       -6.81766       -5.41676
C          0.25000       -7.19577       -5.82354
C         -0.58727       -7.04739       -4.73095
C          0.08305       -6.47072       -3.60461
C         -0.68765       -6.05214       -2.38113
C         -2.20245       -5.94017       -2.62390
O         -2.78882       -5.69579       -1.33364
C         -4.11952       -5.19891       -1.39992
C         -2.69728       -7.24360       -3.30757
O         -4.12707       -7.22164       -3.45625
C         -4.65058       -8.40495       -4.04840
C         -2.04902       -7.36141       -4.70056
C         -0.16317       -7.54840       -7.15474
O         -1.45673       -7.27866       -7.59004
C          0.46933       -8.13465       -8.21426
C          1.70555       -8.71702       -8.63338
O          2.72850       -8.88195       -7.99152
N          1.47751       -9.09434       -9.94559
C          0.19969       -8.83538      -10.39974
O         -0.27532       -9.08109      -11.48607
C         -0.43538       -8.21292       -9.28201
C         -1.63745       -7.67554       -8.90845
C         -2.84776       -7.52330       -9.63244
C         -3.92133       -6.96552       -9.05410
C         -5.19064       -6.79153       -9.73555
C         -6.30045       -6.25830       -9.20166
C         -7.56964       -6.15767       -9.88249
C         -8.58103       -5.80000       -9.07691
C         -8.18026       -5.60166       -7.69232
S         -6.42511       -5.65021       -7.57136
C         -8.99259       -5.48964       -6.62419
C        -10.44291       -5.55829       -6.63566
C        -10.99180       -5.62091       -5.41366
C        -10.01982       -5.58379       -4.35115
S         -8.40930       -5.35542       -4.96034
C        -10.27867       -5.72613       -3.04940
H         10.41657       -6.44037        8.50011
H          9.04547       -7.49213        7.83620
H         11.43769       -4.58171        6.89526
H         11.02957       -3.56543        4.60957
H         10.14473       -2.88989        2.52068
H          8.57661       -2.38986        0.59477
H          6.27465       -3.11960       -0.31166
H          2.77631       -6.57179        3.81647
H          1.52559       -6.79199       -1.19706
H          3.38308       -5.50702       -3.29504
H         -0.31640       -5.08626       -2.01504
H         -0.52382       -6.77853       -1.57586
H         -2.40057       -5.07605       -3.27228
H         -4.83005       -6.02628       -1.45505
H         -4.25965       -4.51310       -2.24137
H         -4.32124       -4.65022       -0.47567
H         -2.42868       -8.09629       -2.66732
H         -5.73795       -8.32073       -4.08437
H         -4.37433       -9.28654       -3.46228
H         -4.30057       -8.51407       -5.07864
H         -2.58282       -6.69274       -5.38738
H         -2.19096       -8.38297       -5.07517
H          2.17105       -9.55824      -10.50577
H         -2.88181       -7.86944      -10.66166
H         -3.85812       -6.63207       -8.01819
H         -5.23299       -7.16350      -10.75783
H         -7.68718       -6.38150      -10.93452
H         -9.60132       -5.70304       -9.41819
H        -11.02690       -5.59494       -7.54383
H        -12.05288       -5.70946       -5.22895
H        -11.28516       -5.88805       -2.68242
H         -9.48023       -5.69991       -2.31321
