99

C         -9.68304        6.42221        1.11984
C         -9.67191        7.11318        2.29196
C        -10.31134        8.37516        2.43107
N        -10.80524        9.42284        2.55044
C         -9.05873        6.61423        3.48562
N         -8.56382        6.23175        4.47421
C        -10.42451        6.80973       -0.14278
C        -10.42823        5.70553       -0.99255
C        -11.03674        5.63740       -2.23871
C        -11.61911        6.80977       -2.73624
C        -11.59573        7.96122       -1.93415
C        -11.01979        7.97686       -0.62404
S        -12.32358        9.28725       -2.78016
C        -12.62904        8.34327       -4.14980
C        -12.21708        7.04721       -4.01688
Br       -13.44075        8.99617       -5.70741
C         -9.54340        4.66309       -0.51085
O         -9.21055        3.73231       -1.21414
C         -9.05155        5.09698        0.84353
C         -8.11492        4.39208        1.50716
C         -7.49039        3.16050        1.04835
C         -8.07852        1.98660        0.76565
C         -7.39556        0.90316        0.10016
C         -8.21714       -0.05369       -0.34080
C         -9.61023        0.16739        0.00469
S         -9.77339        1.61500        0.99554
C        -10.62950       -0.67650       -0.23276
C        -11.99000       -0.54523        0.25998
C        -12.52358       -1.73339        0.58297
C        -11.62078       -2.83045        0.29260
S        -10.39804       -2.30830       -0.84631
C        -11.59020       -3.98911        0.97273
C        -10.47234       -4.94576        0.90954
C         -9.37673       -4.76254        1.77790
C         -8.16226       -5.46423        1.74574
S         -7.01105       -4.97517        2.98598
C         -8.29855       -4.05384        3.89085
C         -9.40666       -3.71237        2.88050
C         -8.00488       -6.37802        0.73760
C         -9.12118       -6.64227       -0.06873
C         -8.84166       -7.69137       -1.13077
C         -7.50288       -8.37716       -0.81070
S         -6.56888       -7.30887        0.33162
C        -10.37131       -6.00035        0.00101
C        -11.44978       -6.44710       -0.89097
C        -12.32921       -7.39636       -0.50921
C        -13.29452       -7.94560       -1.40825
S        -14.83026       -8.43031       -0.80594
C        -15.39267       -8.96141       -2.34570
C        -14.39160       -8.82817       -3.28952
C        -13.20969       -8.21981       -2.76252
C        -16.74335       -9.40445       -2.46519
C        -17.14423      -10.30510       -3.37700
C        -18.54246      -10.66136       -3.52224
C        -19.00420      -11.55085       -4.41529
C        -20.40125      -11.80994       -4.51968
O        -21.35765      -11.18288       -3.74486
C        -22.61818      -11.65970       -4.04631
C        -22.44862      -12.61814       -5.03366
C        -21.08290      -12.67893       -5.35152
O        -20.51646      -13.46728       -6.28290
O        -23.40825      -13.37697       -5.59718
C        -23.80148      -11.18781       -3.41145
C        -23.73871      -10.27727       -2.42887
C        -24.91906       -9.77569       -1.77166
C        -25.07839       -9.83576       -0.44548
H        -10.98915        4.72540       -2.82814
H        -11.01515        8.91296       -0.07695
H        -12.30819        6.29342       -4.79153
H         -7.65946        4.75800        2.42198
H         -6.42200        3.25969        0.86056
H         -6.32808        0.90149       -0.08136
H         -7.87770       -0.91257       -0.90259
H        -12.45861        0.41447        0.44455
H        -13.47238       -1.84722        1.08619
H        -12.31679       -4.18198        1.75584
H         -7.88644       -3.16276        4.37234
H         -8.69215       -4.71508        4.67146
H         -9.20797       -2.73129        2.43205
H        -10.37403       -3.68343        3.39075
H         -8.77709       -7.18423       -2.10112
H         -9.63352       -8.44427       -1.17784
H         -6.92465       -8.57921       -1.71696
H         -7.67988       -9.32913       -0.29966
H        -11.45558       -6.01881       -1.88457
H        -12.30207       -7.79501        0.50396
H        -14.51176       -9.10759       -4.33028
H        -12.33039       -8.01244       -3.35921
H        -17.47249       -8.96289       -1.78863
H        -16.43494      -10.78627       -4.04527
H        -19.24660      -10.14199       -2.87230
H        -18.33643      -12.09315       -5.07727
H        -21.22948      -13.96410       -6.72725
H        -24.24360      -13.28607       -5.10786
H        -24.76180      -11.58327       -3.72380
H        -22.78374       -9.88274       -2.08444
H        -25.69481       -9.33879       -2.39642
H        -24.33127      -10.28626        0.20137
H        -25.97998       -9.45252        0.02119
