102

C          1.46846       -9.18741        7.27566
C          1.89361      -10.50418        7.43392
F          2.75813      -10.80084        8.41386
C          1.42866      -11.50169        6.58950
F          1.83734      -12.76766        6.75024
C          0.53439      -11.20028        5.56839
C          0.09459       -9.88104        5.38547
C          0.56299       -8.85209        6.25500
C          0.11357       -7.52209        6.08619
C         -0.77478       -7.21064        5.06146
C         -1.22011       -8.24999        4.23352
C         -0.80761       -9.56745        4.36458
C         -2.20997       -7.75925        3.26357
O         -2.68109       -8.40868        2.35490
C         -2.47889       -6.33048        3.64220
C         -1.42959       -5.94207        4.61600
C         -1.02769       -4.68153        4.91306
C         -1.61475       -3.52745        4.31888
N         -2.10332       -2.59391        3.82981
C          0.05775       -4.40265        5.79168
N          0.93830       -4.17536        6.50848
C         -3.57179       -5.65703        3.25215
C         -4.52622       -6.18390        2.34685
O         -4.40675       -5.99274        0.98306
C         -5.50045       -6.59285        0.45264
C         -6.25618       -7.10741        1.49208
N         -5.64252       -6.81910        2.68312
C         -7.44454       -7.78337        1.19424
C         -7.82805       -7.92001       -0.14424
C         -7.02697       -7.37990       -1.13399
C         -5.85088       -6.70018       -0.88097
O         -7.60070       -7.64189       -2.33382
C         -8.75477       -8.34084       -2.02748
N         -8.91114       -8.51995       -0.71978
C         -9.63108       -8.79216       -3.04129
C        -10.74451       -9.46579       -2.72343
C        -11.61737       -9.92015       -3.73753
O        -12.39882      -11.05864       -3.61135
C        -11.90526       -9.41824       -4.97584
C        -11.58632       -8.32504       -5.83789
O        -10.81747       -7.40346       -5.63391
N        -12.35068       -8.55454       -6.96075
C        -13.13234       -9.69173       -6.88961
O        -13.89553      -10.12490       -7.73250
C        -12.83947      -10.24144       -5.60243
C        -13.15780      -11.27721       -4.76501
C        -14.05741      -12.36671       -4.91804
C        -14.18337      -13.25640       -3.92303
C        -15.09846      -14.38068       -3.93476
C        -15.52943      -15.02219       -2.83714
C        -16.39775      -16.17579       -2.83590
C        -16.55908      -16.72406       -1.62164
C        -15.79618      -16.05829       -0.58073
S        -15.11971      -14.56005       -1.20498
C        -15.51820      -16.53619        0.64548
C        -15.95016      -17.80301        1.20147
C        -15.31590      -18.14055        2.33413
C        -14.35683      -17.15343        2.77544
S        -14.40944      -15.73871        1.75387
C        -13.51056      -17.31217        3.80593
C        -12.52651      -16.34107        4.25688
C        -12.78167      -15.11741        4.75066
C        -11.85875      -13.99779        5.04116
C        -10.57282      -14.08359        5.45986
C         -9.80502      -12.94449        5.84091
N         -9.17873      -12.02633        6.16655
C         -9.90861      -15.32874        5.63560
N         -9.36372      -16.34726        5.78081
C        -12.67847      -12.75023        4.95140
C        -14.02716      -13.11057        4.90661
C        -14.17416      -14.57076        4.91034
O        -15.22051      -15.16826        5.05413
C        -15.07653      -12.20465        4.80899
C        -14.75134      -10.83327        4.73139
C        -13.39850      -10.45941        4.75528
C        -12.34445      -11.40349        4.86234
S        -13.22705       -8.74420        4.62546
C        -14.89695       -8.51932        4.53396
C        -15.60819       -9.68666        4.60513
Br       -15.69540       -6.83540        4.34595
H          1.85664       -8.43541        7.95847
H          0.18816      -12.00584        4.92600
H          0.46862       -6.76930        6.78358
H         -1.19968      -10.32665        3.69177
H         -3.82023       -4.67283        3.62334
H         -8.05679       -8.19792        1.98717
H         -5.24331       -6.28356       -1.67299
H         -9.35087       -8.57588       -4.06583
H        -10.98911       -9.69476       -1.68819
H        -12.34182       -7.94028       -7.75639
H        -14.65967      -12.43480       -5.81896
H        -13.57060      -13.14134       -3.02804
H        -15.42425      -14.72527       -4.91303
H        -16.84486      -16.56867       -3.73800
H        -17.15195      -17.60940       -1.44420
H        -16.69251      -18.43158        0.73164
H        -15.49098      -19.06150        2.87223
H        -13.49251      -18.25975        4.33972
H        -11.50969      -16.68838        4.09413
H        -16.10528      -12.55183        4.76264
H        -11.32154      -11.04473        4.84416
H        -16.68941       -9.74019        4.56024
