119

C          0.97622       -0.33902        0.17542
C          2.24074       -0.57982       -0.24194
C          2.73655       -1.89696       -0.34264
N          3.12207       -2.97823       -0.41981
C          3.15956        0.48321       -0.52590
N          3.88961        1.35217       -0.76081
C         -0.04508       -1.31037        0.63374
C         -0.87586       -0.65506        1.55476
C         -2.03330       -1.18790        2.08376
C         -2.48444       -2.37469        1.52267
C         -1.71319       -3.03097        0.51385
C         -0.45508       -2.52558        0.11968
C         -2.28085       -4.12578       -0.14576
C         -3.57189       -4.55676        0.17072
C         -4.29974       -3.93053        1.17998
C         -3.75250       -2.85064        1.86495
C         -0.58847        0.78086        1.55166
O         -1.12703        1.58917        2.27330
C          0.38219        0.97242        0.42011
C          0.43345        1.97991       -0.46321
C         -0.31409        3.23649       -0.46487
C         -0.60638        3.89085        0.71461
N         -1.29131        5.03038        0.77321
C         -1.53786        5.65305       -0.39698
C         -1.12615        5.17474       -1.65028
C         -0.61908        3.86599       -1.67936
N         -0.38686        3.24600       -2.87076
C         -0.61363        3.95038       -4.00050
C         -0.97578        5.27176       -3.96476
N         -1.19441        5.90733       -2.79865
C         -2.24334        6.92221       -0.24541
N         -2.12704        7.80513        0.83513
C         -1.42731        7.59179        2.08725
C          0.08424        7.52048        1.94944
C         -2.88735        8.95952        0.62341
O         -3.03397        9.90817        1.36175
C         -3.46493        8.75111       -0.71324
C         -3.10489        7.43248       -1.12783
C         -3.76046        7.15618       -2.41023
O         -3.88077        6.07144       -2.94264
N         -4.24877        8.42391       -2.78108
C         -4.79606        8.71831       -4.09979
C         -4.76208        7.55955       -5.09551
C         -4.12762        9.33067       -1.71506
C         -4.60825       10.67991       -1.74045
C         -5.49576       11.16976       -0.86007
C         -6.00741       12.52720       -0.88939
C         -6.69478       13.12185       -1.90008
N         -7.04815       12.52170       -3.17708
O         -7.64529       13.25130       -3.98168
O         -6.75927       11.34397       -3.41228
C         -7.10951       14.46302       -1.54964
C         -6.72141       14.72736       -0.29539
C         -6.03941       13.54428        0.23240
C         -5.52822       13.44935        1.48318
C         -4.60961       12.40407        1.90298
C         -4.26971       12.59782        3.18408
C         -4.95434       13.78120        3.64351
N         -4.84899       14.26998        5.00041
O         -4.91419       15.49065        5.19966
O         -4.64157       13.42446        5.88267
C         -5.70890       14.34059        2.66983
C         -6.56017       15.49362        2.83594
C         -7.88641       15.48431        2.64617
C         -8.66375       16.69180        2.79502
C         -9.74324       16.83603        3.57448
C        -10.67360       17.97517        3.69412
C        -10.37053       19.29462        3.54797
C        -11.31767       20.32258        3.77625
N        -12.09248       21.16977        3.94323
C         -9.06445       19.74497        3.20029
N         -8.00607       20.11065        2.89581
C        -11.96180       17.40389        4.18950
C        -11.72649       16.08452        4.60284
C        -10.32569       15.71191        4.37790
O         -9.78693       14.70492        4.78519
C        -12.70749       15.24481        5.10265
C        -14.00571       15.74662        5.21199
C        -14.28279       17.08287        4.80590
C        -13.25565       17.89803        4.27997
C        -15.59044       17.57111        4.94197
C        -16.60478       16.76504        5.46314
C        -16.33099       15.45519        5.84643
C        -15.03912       14.94663        5.71896
H         -2.63883       -0.60466        2.77217
H          0.09918       -3.00933       -0.68066
H         -1.74711       -4.61985       -0.95453
H         -4.01894       -5.37535       -0.38677
H         -5.30702       -4.26351        1.41614
H         -4.34826       -2.35004        2.62640
H          1.02773        1.85731       -1.36985
H         -0.27774        3.53017        1.68171
H         -0.47694        3.42323       -4.93716
H         -1.12734        5.85624       -4.86444
H         -1.84079        6.70342        2.57643
H         -1.65536        8.42949        2.75864
H          0.41567        6.69640        1.31602
H          0.53987        7.37774        2.93376
H          0.47914        8.44015        1.50909
H         -4.20901        9.54434       -4.52057
H         -5.82911        9.04927       -3.97907
H         -3.73575        7.21315       -5.26650
H         -5.17866        7.85598       -6.06182
H         -5.35601        6.71361       -4.73296
H         -4.22858       11.29981       -2.55079
H         -5.88281       10.53625       -0.05852
H         -7.60994       15.14300       -2.22218
H         -6.82571       15.68398        0.18669
H         -4.19017       11.66195        1.26083
H         -3.56776       12.01257        3.75994
H         -6.07049       16.40194        3.18575
H         -8.41119       14.57951        2.34174
H         -8.31378       17.49944        2.15780
H        -12.45771       14.22662        5.38816
H        -13.51133       18.89971        3.94941
H        -15.83238       18.59211        4.65261
H        -17.61078       17.16268        5.57174
H        -17.12268       14.82905        6.25041
H        -14.84557       13.92052        6.02606
