119

C          0.65242        1.30762        3.05925
C          1.53180        1.95490        3.85198
C          2.91209        1.61936        3.87252
N          4.04231        1.35462        3.84767
C          1.08260        2.93117        4.78932
N          0.68561        3.68860        5.57309
C          0.87202        0.03026        2.36037
C         -0.32437       -0.70205        2.45074
C         -0.45873       -1.97239        1.93178
C          0.61317       -2.48192        1.18578
C          1.78617       -1.69434        0.97709
C          1.92280       -0.44663        1.60131
C          2.78852       -2.16607        0.12086
C          2.66254       -3.40909       -0.49687
C          1.54518       -4.20257       -0.24875
C          0.52700       -3.74347        0.58784
C         -1.41124        0.17529        2.95847
O         -2.56355       -0.11760        3.17836
C         -0.77883        1.53862        2.98375
C         -1.48292        2.58206        2.51778
C         -0.92949        3.77837        1.94576
S         -1.86218        5.22868        2.13262
C         -0.79036        6.16509        1.18800
C          0.28332        5.42403        0.76558
C          0.18545        4.05676        1.15334
C          1.17953        3.13980        0.68531
N          2.05700        2.49032        0.29782
C          1.35405        5.97425       -0.01770
N          2.23225        6.38909       -0.65148
C         -1.04530        7.53482        0.96745
C         -1.74947        7.94231       -0.09967
C         -2.04970        9.32735       -0.33508
N         -2.28761        9.88382       -1.59400
C         -2.26773        9.18174       -2.86663
C         -0.88653        9.14243       -3.49799
C         -2.59363       11.26250       -1.49629
O         -2.85420       12.07146       -2.36326
C         -2.58426       11.50076       -0.03725
C         -2.23733       10.26576        0.59890
C         -2.26044       10.48041        2.05525
O         -2.03074        9.66720        2.92693
N         -2.64184       11.82939        2.17036
C         -2.82436       12.41124        3.48455
C         -1.58345       13.05434        4.07251
C         -2.83130       12.41260        0.91004
C         -3.21166       13.77169        0.64719
C         -4.01986       14.53903        1.39195
C         -4.29803       15.91848        1.10267
C         -3.93598       16.97384        1.87437
N         -3.26651       16.90072        3.16370
O         -2.99588       15.79641        3.64924
O         -3.01912       17.97869        3.72334
C         -4.22849       18.22352        1.21591
C         -4.76880       17.96358        0.01493
C         -4.89457       16.51012       -0.13485
C         -5.47182       15.85277       -1.17073
C         -5.83074       14.42666       -1.16228
C         -6.37791       14.11741       -2.34669
C         -6.40741       15.31406       -3.15303
N         -6.92060       15.33844       -4.50556
O         -7.46683       16.37128       -4.91592
O         -6.82338       14.28872       -5.15672
C         -5.90660       16.38594       -2.49856
C         -5.78801       17.71573       -3.05317
C         -4.63171       18.36683       -3.25092
C         -4.60437       19.72151       -3.76519
C         -3.66922       20.65315       -3.51046
C         -3.63608       22.08070       -3.91380
C         -4.10657       22.60122       -5.07238
C         -3.92326       23.97384       -5.43269
N         -3.77725       25.07815       -5.72522
C         -4.75304       21.80747       -6.06000
N         -5.28378       21.15261       -6.86338
C         -2.79595       22.78827       -2.90066
C         -2.15166       21.82194       -2.11781
C         -2.55881       20.47008       -2.51687
O         -2.06750       19.44173       -2.09960
C         -1.27693       22.12349       -1.08567
C         -1.01972       23.46797       -0.81075
C         -1.66508       24.47951       -1.57651
C         -2.56216       24.12758       -2.61187
C         -1.38865       25.82376       -1.28215
C         -0.50303       26.16570       -0.25733
C          0.12159       25.17113        0.48979
C         -0.13435       23.82865        0.21480
H         -1.39301       -2.51417        2.04246
H          2.81002        0.15717        1.42417
H          3.66958       -1.56101       -0.08801
H          3.43969       -3.75791       -1.17204
H          1.45754       -5.17736       -0.72094
H         -0.34268       -4.37505        0.75452
H         -2.56932        2.47473        2.46011
H         -0.61717        8.23073        1.68280
H         -2.13831        7.21682       -0.80908
H         -2.95734        9.68807       -3.55230
H         -2.65180        8.16463       -2.73498
H         -0.50601       10.15334       -3.67349
H         -0.92545        8.62044       -4.46028
H         -0.17143        8.61756       -2.85683
H         -3.17567       11.62308        4.15981
H         -3.63104       13.12983        3.48274
H         -0.80071       12.31541        4.25956
H         -1.84121       13.52600        5.02837
H         -1.17676       13.82812        3.41443
H         -2.83320       14.17369       -0.29544
H         -4.51976       14.18536        2.28216
H         -4.01971       19.19490        1.63749
H         -5.09143       18.72058       -0.67477
H         -5.75436       13.73469       -0.34069
H         -6.77583       13.15886       -2.64490
H         -6.73591       18.18737       -3.31193
H         -3.68437       17.89360       -2.99744
H         -5.47344       19.96820       -4.37260
H         -0.81614       21.32350       -0.51278
H         -3.05196       24.92890       -3.15768
H         -1.85802       26.62264       -1.85342
H         -0.30017       27.21218       -0.04303
H          0.81031       25.43958        1.28723
H          0.36682       23.06626        0.80864
