121

C        -12.85563       -1.89391       -0.04451
C        -13.72953       -2.25293       -1.07097
F        -14.42914       -1.29850       -1.69842
C        -13.86454       -3.57855       -1.45775
F        -14.68986       -3.91418       -2.45893
C        -13.12956       -4.57165       -0.82568
C        -12.23182       -4.23026        0.19149
C        -12.07996       -2.87099        0.60093
C        -11.12837       -2.52824        1.59685
C        -10.30716       -3.51610        2.13375
C        -10.47268       -4.82685        1.67314
C        -11.43360       -5.21795        0.75700
C         -9.37071       -5.68431        2.11457
O         -9.26764       -6.86469        1.85450
C         -8.40453       -4.77505        2.82036
C         -9.12131       -3.49375        3.05362
C         -8.85434       -2.55143        3.98981
C         -7.73678       -2.64211        4.87464
N         -6.80569       -2.68912        5.56662
C         -9.68388       -1.41479        4.18799
N        -10.36019       -0.48165        4.33435
C         -7.10245       -5.07410        2.97843
C         -6.42278       -6.29245        2.56017
C         -5.77199       -7.17008        3.36754
N         -5.58166       -7.01691        4.79310
O         -4.59546       -7.58288        5.28231
O         -6.41122       -6.35748        5.43187
C         -5.24036       -8.29702        2.63707
C         -5.55679       -8.15472        1.34249
C         -6.31666       -6.90988        1.19024
C         -6.76139       -6.43933        0.00199
C         -7.09617       -5.04139       -0.28198
C         -7.38218       -4.94354       -1.58972
C         -7.29376       -6.26261       -2.17549
N         -7.64715       -6.54562       -3.54404
O         -8.55606       -5.86001       -4.03255
O         -6.98977       -7.40153       -4.14954
C         -6.95813       -7.20573       -1.27014
C         -7.08734       -8.64427       -1.44033
C         -8.25253       -9.27500       -1.67929
C         -8.39122      -10.70688       -1.76819
N         -8.11082      -11.59105       -0.70820
C         -7.78477      -11.20872        0.65774
C         -6.93168      -12.22487        1.40830
C         -8.36221      -12.92762       -1.08245
O         -8.30067      -13.96306       -0.45189
C         -8.74040      -12.80138       -2.48931
C         -8.77311      -11.41123       -2.84304
C         -9.16794      -11.34303       -4.26945
O         -9.34652      -10.34390       -4.93365
N         -9.24785      -12.70864       -4.64492
C         -9.45260      -13.14001       -6.01682
C        -10.91289      -13.28056       -6.41360
C         -9.00757      -13.54519       -3.55951
C         -8.98099      -14.97539       -3.63420
C         -9.69991      -15.75557       -2.81532
C         -9.63752      -17.16766       -2.91810
S         -8.50075      -18.02194       -1.96922
C         -9.13281      -19.59272       -2.37141
C        -10.10551      -19.43174       -3.35488
C        -10.37088      -18.04490       -3.68156
C        -11.30000      -17.61510       -4.63966
C        -11.93569      -18.68506       -5.31466
C        -12.92340      -18.34384       -6.31327
N        -13.72764      -18.06284       -7.09363
C        -11.65908      -20.06590       -5.01995
C        -12.26360      -21.08409       -5.83357
N        -12.71854      -21.89858       -6.52879
C        -10.76952      -20.49460       -3.98881
C         -8.52703      -20.77827       -1.81966
C         -7.94510      -20.89518       -0.61116
C         -7.00667      -22.04690       -0.36277
O         -6.94803      -23.09931       -0.96202
C         -6.11745      -21.60518        0.73935
C         -5.11572      -22.33411        1.35654
C         -4.46590      -21.75395        2.46191
C         -4.74689      -20.39808        2.81719
C         -4.13529      -19.82962        3.94533
C         -3.29110      -20.59821        4.73199
C         -3.01640      -21.91613        4.39170
C         -3.58080      -22.48953        3.25161
F         -2.22468      -22.65989        5.17535
F         -2.76702      -20.06314        5.84146
C         -5.70312      -19.66547        2.10824
C         -6.46350      -20.30728        1.14467
C         -7.76986      -19.97862        0.52074
C         -8.73382      -19.27500        1.16786
C        -10.11173      -19.49107        0.90094
N        -11.24522      -19.71626        0.73239
C         -8.43543      -18.34497        2.20444
N         -8.13833      -17.56141        3.01105
H        -12.77330       -0.84209        0.21650
H        -13.24398       -5.59870       -1.16275
H        -11.01206       -1.48096        1.86442
H        -11.48991       -6.25600        0.43895
H         -6.42135       -4.35970        3.43579
H         -4.64165       -9.08381        3.07249
H         -5.19031       -8.79283        0.55647
H         -7.03928       -4.20637        0.39495
H         -7.64027       -4.04930       -2.13672
H         -6.17677       -9.22595       -1.32978
H         -9.16970       -8.71003       -1.84189
H         -8.72136      -11.03072        1.19635
H         -7.22733      -10.27319        0.64039
H         -7.51794      -13.10748        1.68244
H         -6.54828      -11.79405        2.33780
H         -6.08014      -12.55257        0.80232
H         -8.94010      -14.09432       -6.17851
H         -8.97256      -12.40794       -6.67475
H        -11.41338      -14.05937       -5.82966
H        -10.98176      -13.56026       -7.47132
H        -11.46043      -12.34384       -6.27451
H         -8.31874      -15.40979       -4.37867
H        -10.35171      -15.33836       -2.05106
H        -11.51371      -16.57508       -4.86376
H        -10.63173      -21.54145       -3.74561
H         -8.44534      -21.62493       -2.50287
H         -4.91127      -23.35266        1.04242
H         -4.35054      -18.80928        4.25147
H         -3.35608      -23.53044        3.03221
H         -5.88400      -18.63064        2.38354
