128

C         -0.26170       -0.71043        1.05417
S          0.23579       -1.76815        2.29791
C         -0.40759       -3.17968        1.50896
C         -1.00364       -2.79749        0.31408
C         -0.90745       -1.38981        0.05855
N         -1.39358       -0.76985       -1.04250
C         -1.99585       -1.64093       -1.90413
C         -2.52282       -1.00450       -3.17295
C         -2.91987        0.46334       -2.99106
O         -3.43796        0.98409       -4.21292
C         -2.08076       -3.04633       -1.67324
C         -2.75164       -3.94991       -2.70577
N         -2.72766       -5.37701       -2.36932
N         -1.60902       -3.66966       -0.53961
C         -0.29819       -4.49975        2.06234
C          0.22988       -4.76815        3.26906
C          0.30873       -6.08278        3.87242
C         -0.72671       -6.87821        4.24128
N         -2.12368       -6.56185        4.06121
O         -2.87679       -7.52340        3.84162
O         -2.49137       -5.38637        4.16065
C         -0.28311       -8.12473        4.82253
C          1.05343       -8.17333        4.74714
C          1.51801       -6.94707        4.08908
C          2.80774       -6.70209        3.76641
C          3.37421       -5.37047        3.55271
C          4.70774       -5.50211        3.47691
C          5.04344       -6.90757        3.54191
N          6.41390       -7.39374        3.45803
O          7.29615       -6.53253        3.30957
O          6.64945       -8.59570        3.57531
C          3.93893       -7.68031        3.66585
C          3.92586       -9.12814        3.71421
C          3.14216      -10.00000        3.06359
C          3.15350      -11.45832        3.26829
C          2.97504      -12.37869        2.28555
N          2.95549      -12.09262        0.87228
O          3.64832      -11.15947        0.44526
O          2.26288      -12.83750        0.15781
C          2.66478      -13.69262        2.80296
C          2.58590      -13.61639        4.13334
C          2.89010      -12.24564        4.54794
C          2.95921      -11.84389        5.84219
C          3.90677      -10.83647        6.30405
C          3.68825      -10.58931        7.59710
C          2.67377      -11.50957        8.04938
N          2.36389      -11.56080        9.44986
O          2.53728      -12.62776       10.05111
O          2.03295      -10.49136        9.97847
C          2.23817      -12.34645        7.07510
C          1.27543      -13.43673        7.13383
C          0.65285      -13.97880        8.19011
C         -0.03438      -15.25961        8.18444
C          0.52765      -16.47326        7.92960
N          1.90832      -16.72590        7.55404
O          2.40557      -17.78691        7.95129
O          2.49797      -15.91627        6.82958
C         -0.35219      -17.56061        8.29434
C         -1.45441      -17.05449        8.85952
C         -1.33977      -15.59292        8.87457
C         -2.21032      -14.70713        9.41825
C         -2.20350      -13.27703        9.08803
C         -3.16297      -12.67551        9.80053
C         -3.82697      -13.66835       10.61163
N         -4.92517      -13.29005       11.47386
O         -5.87782      -14.06750       11.61438
O         -4.86525      -12.15832       11.97669
C         -3.31058      -14.90972       10.43626
C         -3.69314      -16.15496       11.07729
C         -4.24497      -16.34158       12.28581
C         -4.63204      -17.62455       12.78584
S         -4.76839      -19.02930       11.80254
C         -5.19100      -20.07332       13.11240
C         -5.26273      -19.33166       14.28070
C         -4.98941      -17.93787       14.07957
N         -5.02403      -16.99865       15.06276
C         -5.32989      -17.51844       16.28234
C         -5.33509      -16.48648       17.38469
C         -6.37426      -15.38866       17.17047
O         -6.33268      -14.49865       18.28476
C         -5.55096      -18.90585       16.49926
C         -5.82704      -19.45260       17.89145
N         -5.40731      -20.85468       18.03999
N         -5.55425      -19.86245       15.50096
C         -5.35092      -21.47986       12.91060
C         -5.74226      -22.02561       11.74952
H         -0.06026        0.34975        1.10614
H         -3.40215       -1.53967       -3.54640
H         -1.75702       -1.08188       -3.95443
H         -2.05844        1.07898       -2.71221
H         -3.68166        0.57884       -2.21115
H         -4.37775        0.74074       -4.26289
H         -2.25021       -3.82437       -3.67117
H         -3.79830       -3.64402       -2.80785
H         -3.02075       -5.47384       -1.39544
H         -3.40140       -5.88175       -2.93905
H         -0.70071       -5.30753        1.45222
H          0.61275       -3.97669        3.90834
H         -0.92981       -8.83553        5.31398
H          1.67187       -8.92474        5.20979
H          2.86160       -4.42359        3.58718
H          5.43201       -4.70430        3.40416
H          4.71203       -9.52353        4.32842
H          2.44605       -9.62676        2.31496
H          2.57504      -14.58441        2.20160
H          2.47207      -14.48027        4.77148
H          4.82195      -10.54469        5.82444
H          4.30082       -9.98215        8.24487
H          1.10407      -13.93844        6.18724
H          0.65750      -13.52003        9.17154
H         -0.13797      -18.60135        8.10906
H         -2.29091      -17.66943        9.13399
H         -1.61249      -12.78096        8.33753
H         -3.44478      -11.63450        9.75708
H         -3.48250      -17.03707       10.49756
H         -4.43310      -15.51006       12.95926
H         -4.33657      -16.03177       17.43330
H         -5.49584      -16.91559       18.37545
H         -7.38355      -15.80886       17.10904
H         -6.17579      -14.81346       16.26026
H         -6.94096      -13.76471       18.08746
H         -6.89984      -19.37035       18.09484
H         -5.28394      -18.89215       18.65453
H         -4.41320      -20.90054       17.81072
H         -5.84985      -21.36773       17.27078
H         -5.14164      -22.13242       13.75535
H         -6.00097      -21.44142       10.87140
H         -5.82587      -23.10342       11.64819
