97

C          0.39816       -1.22257        0.29301
C          1.34449       -0.54361        1.05675
C          2.66330       -1.04658        1.15338
C          3.61386       -0.32747        1.96077
N          4.36470        0.25771        2.62017
C          3.02624       -2.23589        0.48545
C          4.35583       -2.77231        0.57564
N          5.42188       -3.22287        0.64065
C          2.07058       -2.93480       -0.26263
C          0.78186       -2.42085       -0.32598
C         -0.37465       -3.07228       -0.96440
O         -0.31610       -4.07577       -1.64149
C         -1.57276       -2.24366       -0.58700
C         -1.04464       -0.97779       -0.01463
C         -1.68587        0.21614        0.05767
C         -1.05483        1.39981        0.53428
N         -0.52503        2.35296        0.92851
C         -3.02240        0.39968       -0.40268
N         -4.11197        0.53607       -0.77645
C         -2.84110       -2.68890       -0.60814
C         -3.22694       -3.99012       -1.03053
C         -3.60631       -4.43602       -2.29833
C         -3.96405       -5.80189       -2.27156
C         -3.91752       -6.31024       -0.99255
S         -3.39618       -5.24411        0.16728
C         -4.39142       -7.63770       -1.01237
C         -4.73270       -7.97053       -2.30201
C         -4.42613       -6.84804       -3.18653
C         -4.49156       -6.81202       -4.53079
C         -4.91767       -7.93635       -5.29368
N         -5.26576       -8.84594       -5.92151
C         -4.10032       -5.65912       -5.26357
N         -3.78160       -4.71761       -5.86292
C         -5.29794       -9.25960       -2.37254
C         -5.36656       -9.85923       -1.11136
S         -4.66115       -8.82862        0.10652
C         -5.92175      -11.16275       -0.73423
C         -6.50188      -11.47303        0.51386
F         -6.59263      -10.52149        1.45870
C         -7.03966      -12.73648        0.84975
F         -7.51780      -12.87027        2.09886
C         -7.09148      -13.83076       -0.03385
C         -6.53011      -13.56061       -1.30453
C         -5.94829      -12.24501       -1.65091
N         -5.49932      -12.32259       -2.91869
N         -5.81952      -13.56928       -3.28080
N         -6.42327      -14.35558       -2.38559
C         -5.51779      -14.06719       -4.60164
C         -7.68942      -15.13295        0.25419
C         -7.34122      -16.39719       -0.23158
C         -8.22164      -17.38590        0.24539
C         -9.17196      -16.85113        1.08452
S         -9.08033      -15.21465        1.29748
C         -9.98794      -17.88549        1.57534
C         -9.54036      -19.07652        1.05787
C         -8.44944      -18.82139        0.11865
C         -7.88189      -19.68770       -0.74335
C         -8.33391      -21.03421       -0.82406
N         -8.75352      -22.11649       -0.85501
C         -6.87241      -19.28604       -1.65997
N         -6.04822      -18.96662       -2.41205
C        -10.21043      -20.16655        1.63895
C        -11.24770      -19.74384        2.47688
S        -11.27713      -18.00511        2.61041
C        -12.17276      -20.49532        3.25613
C        -12.61228      -21.72060        2.93799
C        -13.12104      -22.55651        4.07162
O        -13.56323      -22.19331        5.13999
C        -12.86066      -23.94903        3.66771
C        -12.98782      -25.06687        4.47846
C        -12.61355      -26.30667        3.94683
C        -12.10542      -26.38582        2.63095
C        -11.97591      -25.22516        1.83628
C        -12.37516      -23.99818        2.34886
C        -12.41476      -22.61626        1.78913
C        -12.48790      -22.28232        0.47511
C        -12.84624      -20.97194        0.03292
N        -13.14694      -19.91828       -0.34976
C        -12.27474      -23.22557       -0.56909
N        -12.09169      -24.00767       -1.40579
C        -11.70856      -27.64477        2.06268
N        -11.38630      -28.65096        1.58642
C        -12.74536      -27.47520        4.77050
N        -12.85831      -28.40703        5.45073
H          1.09868        0.35999        1.60995
H          2.31216       -3.86994       -0.76586
H         -3.65718       -2.09434       -0.21053
H         -3.62174       -3.78499       -3.16406
H         -5.67210       -9.74136       -3.26824
H         -5.09844      -13.26097       -5.20810
H         -6.44468      -14.43074       -5.05262
H         -4.79458      -14.88034       -4.50258
H         -6.50598      -16.55699       -0.90396
H         -9.96800      -21.20765        1.47467
H        -12.43951      -20.07490        4.22821
H        -13.35476      -24.96728        5.49865
H        -11.55286      -25.32293        0.83879
