119

C          1.74202        1.71191       -1.73166
C          2.56677        2.95964       -2.14576
C          3.97018        2.94897       -2.25001
C          4.68036        4.12455       -2.53010
C          4.00809        5.33004       -2.71741
C          2.62205        5.36337       -2.64278
C          1.91241        4.19491       -2.36050
C          1.51504        1.59731       -0.20756
C          0.37152        0.95592        0.31659
C          0.18837        0.80451        1.69681
C          1.13687        1.29619        2.58670
C          2.26542        1.94335        2.09845
C          2.45277        2.09126        0.72066
C          2.19460        0.39244       -2.39610
C          1.31425        0.12526       -3.38995
C          0.31435        1.16737       -3.45967
C         -0.59223        1.46841       -4.41347
C         -0.70288        0.78264       -5.65321
N         -0.79948        0.24806       -6.67745
C         -1.46842        2.56988       -4.21795
N         -2.18425        3.47611       -4.05813
O          0.40961        1.93784       -2.30943
C          1.22350       -1.04599       -4.18938
N          1.10700       -1.99438       -4.84623
C          3.27588       -0.50235       -2.02441
C          3.89305       -0.70107       -0.77643
C          4.86994       -1.72381       -0.80579
C          4.95825       -2.28213       -2.05563
S          4.08259       -1.51071       -3.22161
C          5.85311       -3.36632       -2.01536
C          6.37575       -3.46360       -0.75096
C          5.80046       -2.41680        0.09087
C          6.09587       -2.14356        1.37532
C          7.06016       -2.89251        2.10472
N          7.85532       -3.48917        2.70335
C          5.49122       -1.05667        2.06243
N          5.01457       -0.15999        2.62330
C          7.29907       -4.52202       -0.65837
C          7.39120       -5.24737       -1.85530
S          6.33768       -4.55010       -3.06256
C          8.20190       -6.45912       -2.15195
C          8.73730       -6.80235       -3.41785
C          9.54498       -7.98045       -3.62740
N          9.97344       -8.26966       -4.87732
C          9.67823       -7.43679       -5.89195
C          8.94494       -6.30571       -5.68886
N          8.48649       -5.98597       -4.46646
C          9.91105       -8.85313       -2.57336
C          9.35852       -8.56252       -1.29233
C          8.48567       -7.35795       -1.08174
N          8.04324       -7.26851        0.18724
S          8.66986       -8.53271        1.03693
N          9.53758       -9.26358       -0.15712
C         10.84174      -10.00823       -2.69451
C         10.86745      -11.21640       -1.98222
C         11.98974      -12.00498       -2.31855
C         12.74467      -11.41033       -3.29798
S         12.20439       -9.92572       -3.78882
C         13.83471      -12.24607       -3.61407
C         13.78051      -13.37614       -2.83091
C         12.61230      -13.27446       -1.93918
C         12.22078      -14.12346       -0.96557
C         12.93832      -15.31711       -0.70016
N         13.52781      -16.29315       -0.49120
C         11.08568      -13.85972       -0.14580
N         10.16340      -13.65611        0.52933
C         14.85701      -14.25399       -3.12563
C         15.67803      -13.74038       -4.13949
S         15.11635      -12.17208       -4.66265
C         16.86836      -14.27060       -4.74115
C         18.09208      -13.94297       -4.28040
C         19.10332      -14.60475       -5.08212
C         20.43732      -14.42440       -5.16659
C         21.13787      -13.40975       -4.46198
N         21.71510      -12.56322       -3.91938
C         21.20387      -15.24104       -6.05008
N         21.83644      -15.90949       -6.75702
O         18.47679      -15.53071       -5.91819
C         17.03726      -15.24691       -5.90830
C         16.81437      -14.65939       -7.32609
C         16.51937      -15.49474       -8.42530
C         16.35836      -14.98764       -9.71815
C         16.52967      -13.63129       -9.95938
C         16.88325      -12.78863       -8.91165
C         17.03994      -13.29765       -7.61612
C         16.32292      -16.58355       -5.60388
C         16.95816      -17.58115       -4.83470
C         16.33491      -18.80348       -4.57252
C         15.06305      -19.05862       -5.07291
C         14.40494      -18.08465       -5.81741
C         15.01642      -16.85063       -6.05824
C         18.35482      -13.13605       -3.14232
N         18.57314      -12.50393       -2.19561
H          4.54467        2.04172       -2.08289
H          5.76662        4.10555       -2.58668
H          4.56251        6.24476       -2.91323
H          2.08754        6.29988       -2.78565
H          0.82758        4.27199       -2.29432
H         -0.40507        0.56981       -0.34068
H         -0.69766        0.30272        2.07966
H          0.99996        1.17767        3.65885
H          3.01501        2.32274        2.78989
H          3.36615        2.58260        0.39477
H          3.61020       -0.16537        0.11725
H          7.86433       -4.78177        0.22771
H         10.05893       -7.71164       -6.86783
H          8.69749       -5.62136       -6.49152
H         10.12019      -11.46913       -1.23934
H         15.05062      -15.20620       -2.64382
H         16.41590      -16.57126       -8.29942
H         16.11413      -15.66090      -10.53658
H         16.41238      -13.23704      -10.96554
H         17.05087      -11.73140       -9.10470
H         17.36733      -12.59945       -6.85032
H         17.95909      -17.42873       -4.43623
H         16.84844      -19.56004       -3.98356
H         14.58471      -20.01566       -4.88006
H         13.41508      -18.28847       -6.21884
H         14.47082      -16.11718       -6.65013
