95

C         -7.49428       -5.06890       -1.98243
C         -6.83817       -6.19589       -2.36016
C         -7.51949       -7.39649       -2.72685
N         -8.06125       -8.37506       -3.03361
C         -5.42080       -6.28880       -2.48025
N         -4.26531       -6.37748       -2.58922
C         -8.98969       -4.88622       -1.94103
C         -9.25869       -3.53408       -1.73103
C        -10.52444       -2.96214       -1.72336
C        -11.62591       -3.81540       -1.90282
C        -11.39197       -5.19199       -2.03551
C        -10.07939       -5.74753       -2.05697
S        -12.89049       -6.05056       -2.15756
C        -13.79318       -4.62390       -2.08555
C        -13.02314       -3.50015       -1.96766
Br       -15.66467       -4.57666       -2.14976
C         -8.03974       -2.78352       -1.46644
O         -8.04233       -1.64094       -1.05501
C         -6.89627       -3.73848       -1.66731
C         -5.61823       -3.33979       -1.53913
C         -5.22961       -1.97561       -1.36978
S         -5.11118       -0.99802       -2.78537
C         -4.51174        0.32723       -1.90849
C         -4.35897        0.06055       -0.56196
C         -3.78079        1.04700        0.40105
C         -4.83616       -1.26740       -0.23820
C         -4.84575       -1.80268        1.10092
C         -5.83920       -2.52570        1.64637
C         -5.82356       -3.02104        3.00705
C         -6.93889       -3.44659        3.61953
C         -6.97023       -3.85283        4.97953
O         -8.13123       -3.73960        5.74010
C         -6.04367       -4.39417        5.82992
C         -4.68865       -4.85244        5.86980
O         -3.87355       -4.88229        4.96569
N         -4.51242       -5.27488        7.16873
C         -5.63489       -5.15331        7.96063
O         -5.74066       -5.48989        9.12560
C         -6.62297       -4.57957        7.09381
C         -7.93066       -4.16339        7.05486
C         -8.99181       -4.11332        8.00026
C         -8.85532       -4.44440        9.29095
C         -9.95363       -4.39489       10.23649
C         -9.92565       -3.74443       11.40916
C        -11.01837       -3.69544       12.35075
C        -10.84890       -2.78169       13.31857
C         -9.61458       -2.02349       13.19152
S         -8.59626       -2.75344       11.94957
C         -9.30043       -0.88206       13.83324
C        -10.11703       -0.18077       14.80699
C         -9.65354        1.03646       15.12824
C         -8.43535        1.39024       14.43641
S         -7.84010        0.04612       13.49656
C         -7.84659        2.59417       14.49282
C         -6.61667        2.93631       13.76773
C         -6.57790        3.48970       12.45398
O         -7.82969        3.81623       11.96637
C         -8.06748        3.64339       10.57551
C         -5.34456        3.75142       11.77217
O         -5.40802        4.29437       10.50506
C         -4.25701        4.10707        9.67994
C         -4.09018        3.51747       12.37923
C         -4.08885        2.94523       13.67021
C         -5.36913        2.64103       14.38489
N         -5.16353        2.09577       15.59846
S         -3.52391        1.94779       15.78812
N         -2.99009        2.62443       14.37039
H        -10.64655       -1.89206       -1.57890
H         -9.98333       -6.82247       -2.15774
H        -13.41909       -2.49261       -1.91307
H         -4.77904       -4.01757       -1.61810
H         -4.27396        1.24480       -2.42944
H         -3.51185        1.98218       -0.10345
H         -2.86807        0.64272        0.85083
H         -4.49346        1.28568        1.19561
H         -4.00101       -1.53044        1.73012
H         -6.73638       -2.73248        1.07104
H         -4.86729       -2.99893        3.52388
H         -7.89691       -3.40830        3.10671
H         -3.65256       -5.67292        7.50506
H         -9.95000       -3.75634        7.63042
H         -7.90307       -4.75303        9.71087
H        -10.85508       -4.92510        9.93796
H        -11.89256       -4.32519       12.26085
H        -11.58115       -2.59673       14.09107
H        -11.02847       -0.58908       15.21916
H        -10.14234        1.70674       15.82170
H         -8.26518        3.39624       15.09176
H         -7.63058        2.71693       10.18947
H         -7.72986        4.51730       10.01172
H         -9.15234        3.58143       10.43435
H         -4.52290        4.37246        8.65289
H         -3.92861        3.06078        9.67845
H         -3.44497        4.77240        9.99176
H         -3.14212        3.75805       11.91952
