108

C          7.50589       -1.33906        1.41794
C          7.11814       -2.38570        2.14965
C          7.41186       -2.58704        3.54267
C          6.86896       -3.70448        4.04677
C          6.10786       -4.47887        3.07981
S          6.16954       -3.68670        1.49704
C          5.41435       -5.60762        3.32511
C          5.24802       -6.27191        4.60513
C          4.34591       -7.26637        4.59072
C          3.72428       -7.46868        3.29698
S          4.50272       -6.46588        2.09465
C          2.64620       -8.24610        3.09128
C          1.97150       -8.34328        1.84001
O          2.58363       -8.19565        0.60073
C          0.64892       -8.54424        1.54875
C         -0.61742       -8.75196        2.18331
O         -0.84061       -8.94304        3.35837
N         -1.52158       -8.71083        1.13636
C         -0.94702       -8.53479       -0.10597
O         -1.51421       -8.48359       -1.18218
C          0.45233       -8.43361        0.16772
C          1.66038       -8.22235       -0.43567
C          2.06898       -7.99247       -1.76849
C          1.43861       -8.48806       -2.84828
C          1.85946       -8.24060       -4.20444
C          3.19487       -7.98237       -4.45719
S          3.50340       -7.61878       -6.07198
C          1.86473       -7.84341       -6.49522
C          1.04476       -8.20925       -5.42963
C         -0.34391       -8.45825       -5.75162
C         -1.31336       -9.01065       -4.70618
C         -1.38934      -10.53882       -4.68433
C         -0.83638       -8.24547       -7.11937
C         -2.29885       -8.53993       -7.43998
C         -3.25499       -7.36535       -7.26135
C          0.06632       -7.83651       -8.16903
C         -0.07235       -7.56612       -9.60630
C          1.14109       -7.32018      -10.21638
S          2.42869       -7.31640       -9.12518
C          1.39998       -7.68577       -7.81114
C         -1.28382       -7.52314      -10.37842
C         -1.40784       -7.86479      -11.67448
C         -2.65242       -7.80288      -12.42025
C         -3.78124       -8.47177      -12.13926
C         -4.98987       -8.43080      -12.92760
C         -5.93425       -9.28925      -12.50993
C         -5.53533      -10.08717      -11.36168
S         -3.95557       -9.56816      -10.80005
C         -6.19624      -11.12255      -10.81018
C         -7.46322      -11.67565      -11.24508
C         -7.79357      -12.82051      -10.62835
C         -6.81630      -13.26104       -9.65811
S         -5.55584      -12.07463       -9.46448
C         -6.86336      -14.42802       -8.99800
C         -5.84417      -14.91457       -8.08274
C         -6.02707      -15.24934       -6.79575
C         -5.04021      -15.67306       -5.77288
C         -3.86544      -16.31529       -5.98169
C         -3.03480      -16.78637       -4.91582
N         -2.34569      -17.15653       -4.05082
C         -3.40027      -16.66791       -7.28643
N         -3.01264      -16.96365       -8.34937
C         -5.67796      -15.40986       -4.44081
C         -7.02001      -15.08481       -4.64980
C         -7.33201      -15.03609       -6.08476
O         -8.43548      -14.85217       -6.55513
C         -7.92076      -14.79504       -3.62980
C         -7.44285      -14.81956       -2.30102
C         -6.09091      -15.12318       -2.07983
C         -5.18973      -15.41389       -3.13691
S         -5.71414      -15.08342       -0.39317
C         -7.30043      -14.67995        0.01804
C         -8.12935      -14.56150       -1.06490
Br        -7.86659      -14.41558        1.78398
H          8.09962       -0.53750        1.84199
H          7.23547       -1.25246        0.36948
H          8.01007       -1.89298        4.11577
H          6.98721       -4.00076        5.07857
H          5.77041       -5.96649        5.50046
H          4.06841       -7.83725        5.46673
H          2.19809       -8.77061        3.93104
H         -2.51156       -8.82779        1.26437
H          2.96352       -7.38449       -1.87035
H          0.57956       -9.12841       -2.69716
H          4.02331       -7.97122       -3.76193
H         -1.02827       -8.64740       -3.72247
H         -2.31738       -8.59514       -4.82788
H         -1.59771      -10.89521       -3.66921
H         -0.47024      -11.02117       -5.03235
H         -2.21189      -10.89893       -5.31263
H         -2.66743       -9.40066       -6.87849
H         -2.35150       -8.88966       -8.46970
H         -3.45987       -7.16513       -6.20524
H         -4.21450       -7.59754       -7.73903
H         -2.87313       -6.44238       -7.70791
H          1.33936       -7.11485      -11.25867
H         -2.17103       -7.17006       -9.86209
H         -0.55024       -8.20954      -12.24811
H         -2.60191       -7.19588      -13.32175
H         -5.10255       -7.77866      -13.78306
H         -6.89071       -9.39695      -13.00088
H         -8.07111      -11.22411      -12.01604
H         -8.68858      -13.38636      -10.84691
H         -7.70064      -15.10242       -9.16842
H         -4.85541      -14.94383       -8.53643
H         -8.95335      -14.54303       -3.85714
H         -4.15369      -15.61379       -2.88990
H         -9.17906      -14.30246       -0.99691
