114

C         -2.57972       -1.36217        1.11809
C         -3.02746       -2.64231        1.14327
C         -2.18004       -3.75513        1.41116
N         -1.49584       -4.66707        1.62845
C         -4.39921       -2.98836        0.96112
N         -5.51192       -3.27527        0.80559
C         -1.18698       -0.90863        1.42834
C         -1.20963        0.46664        1.67097
C         -0.08971        1.21562        2.01850
C          1.15544        0.55102        2.07654
C          1.19836       -0.81988        1.79061
C          0.03672       -1.57048        1.47060
S          2.81521       -1.42180        1.86897
C          3.44857        0.10744        2.27284
C          2.46517        1.06347        2.36619
C         -2.54795        1.01973        1.41913
O         -2.85519        2.19105        1.51566
C         -3.39452       -0.13478        0.95438
C         -4.61133        0.04062        0.41083
C         -5.30631        1.33279        0.30419
C         -5.18625        2.19534       -0.78637
C         -5.85694        3.47185       -0.83434
N         -5.67797        4.23290       -1.94127
C         -4.92084        3.77533       -2.97223
C         -4.29569        2.55856       -2.90565
N         -4.41848        1.76581       -1.81339
C         -3.51110        2.02308       -3.97595
N         -2.88328        1.59054       -4.85137
C         -4.87831        4.61132       -4.13539
N         -4.85472        5.26193       -5.09633
C         -6.70192        3.94623        0.21871
C         -6.89116        3.03030        1.31040
C         -6.16787        1.71580        1.35718
N         -6.43048        0.99665        2.46334
S         -7.50732        1.87112        3.35965
N         -7.69885        3.18281        2.37694
C         -7.35121        5.29823        0.23740
C         -7.72610        5.97165       -0.94431
C         -8.25075        7.25981       -0.88625
C         -8.50084        7.88928        0.34528
C         -8.17562        7.25720        1.52404
C         -7.57929        5.99072        1.45802
C         -9.08009        9.19003        0.11032
C         -9.16554        9.40961       -1.27983
C         -8.62359        8.19623       -2.04097
C         -7.38364        8.59135       -2.89478
C         -6.18780        9.15489       -2.12681
C         -9.69896        7.57733       -2.97261
C        -10.96567        7.07663       -2.28204
C         -9.67657       10.59324       -1.78987
C        -10.10621       11.57821       -0.89234
C        -10.04817       11.33673        0.49604
C         -9.52590       10.14526        1.00460
C        -10.68195       12.81111       -1.43790
C        -10.60337       14.00796       -0.83480
C        -11.20985       15.25507       -1.33742
C        -10.63130       16.51994       -1.06957
C        -11.23290       17.74168       -1.52836
N        -10.65211       18.93429       -1.26187
C         -9.50194       18.95186       -0.54061
C         -8.92159       17.78939       -0.09537
N         -9.47736       16.57561       -0.35839
C         -7.70302       17.77062        0.66233
N         -6.71922       17.77688        1.27553
C         -8.94306       20.24731       -0.29116
N         -8.47124       21.28788       -0.08456
C        -12.43338       17.74185       -2.25341
C        -13.05185       16.49776       -2.54812
C        -12.43855       15.22470       -2.06437
N        -13.18927       14.15239       -2.37664
S        -14.51047       14.68790       -3.20929
N        -14.19364       16.30960       -3.23430
C        -13.17004       18.95916       -2.61032
C        -14.11554       19.48076       -1.81491
C        -14.96297       20.58672       -2.17804
C        -15.98521       20.77111       -1.33066
C        -16.01751       19.82156       -0.22836
S        -14.55148       18.84758       -0.24260
C        -17.03108       19.64056        0.64004
C        -18.29880       20.34875        0.62515
C        -19.19475       19.88143        1.50525
C        -18.69709       18.78546        2.29520
S        -17.03759       18.42172        1.92046
C        -19.40195       18.10272        3.20041
H         -0.16934        2.28316        2.20371
H          0.15293       -2.62327        1.24046
H          4.51241        0.23599        2.42200
H          2.67274        2.09789        2.61346
H         -5.19148       -0.77182       -0.01110
H         -7.60613        5.52162       -1.92350
H         -8.35094        7.72743        2.48567
H         -7.28502        5.55361        2.40982
H         -7.68122        9.33876       -3.64278
H         -7.03308        7.71748       -3.45915
H         -6.45559       10.03867       -1.54054
H         -5.40408        9.45389       -2.83122
H         -5.75417        8.40849       -1.45465
H         -9.26321        6.73357       -3.52368
H         -9.99593        8.31508       -3.72980
H        -10.74909        6.26238       -1.58419
H        -11.66479        6.68847       -3.02992
H        -11.47468        7.87624       -1.73645
H         -9.73401       10.74823       -2.86307
H        -10.42499       12.07570        1.19914
H         -9.48564        9.98196        2.07573
H        -11.18772       12.68914       -2.39231
H        -10.03385       14.11471        0.08676
H        -12.96831       19.36469       -3.59629
H        -14.80628       21.17240       -3.07322
H        -16.73419       21.53552       -1.47579
H        -18.51698       21.15781       -0.05634
H        -20.19785       20.26958        1.61121
H        -20.44013       18.33797        3.40632
H        -18.96146       17.28013        3.75558
