121

C         -3.14416       -1.95274        0.70856
C         -3.20263       -2.75412       -0.38056
C         -2.66687       -4.07685       -0.37906
N         -2.23866       -5.14751       -0.37274
C         -3.86733       -2.37359       -1.57909
N         -4.40575       -2.05950       -2.56921
C         -2.59485       -2.28821        2.06301
C         -3.12563       -1.37136        2.97494
C         -2.79393       -1.31948        4.32223
C         -1.89439       -2.28834        4.81043
C         -1.38086       -3.24424        3.91771
C         -1.70247       -3.24994        2.53101
S         -0.34771       -4.35880        4.74695
C         -0.57410       -3.57562        6.22617
C         -1.38763       -2.47903        6.14051
Br         0.20348       -4.15145        7.83056
C         -4.06015       -0.45758        2.30686
O         -4.93110        0.18378        2.85514
C         -3.79102       -0.62955        0.84726
C         -3.91786        0.35344       -0.05766
C         -4.35567        1.72832        0.21014
C         -5.69875        2.09464        0.04785
C         -6.03708        3.43328        0.19377
C         -5.06411        4.38905        0.55830
C         -3.74008        4.03305        0.73557
C         -3.38539        2.69785        0.54349
C         -5.67954        5.68766        0.64408
C         -7.03902        5.58517        0.28353
C         -7.39244        4.12159       -0.01733
C         -7.90643        3.96055       -1.47787
C         -6.93146        4.37719       -2.57980
C         -8.47108        3.58380        0.96395
C         -8.08773        3.59789        2.44342
C         -7.84169        6.71508        0.22276
C         -7.28242        7.95976        0.54759
C         -5.92727        8.03696        0.93720
C         -5.12232        6.90222        0.99426
C         -8.11297        9.16417        0.42302
C         -7.91259       10.26508        1.16347
C         -8.76754       11.44818        1.06461
C         -9.91399       11.62921        1.83173
C        -10.77780       12.78324        1.70502
N        -11.92341       12.76818        2.44203
C        -12.16180       11.73731        3.31283
C        -11.28218       10.70173        3.46757
N        -10.16796       10.63731        2.71462
C        -11.47255        9.64729        4.41983
N        -11.66007        8.81931        5.21160
C        -13.37294       11.77537        4.07756
N        -14.32152       11.75216        4.74279
C        -10.44141       13.88544        0.84410
C         -9.21261       13.74065        0.09694
C         -8.39131       12.48595        0.18703
N         -7.31926       12.48259       -0.62582
S         -7.30866       13.92863       -1.41584
N         -8.63104       14.63194       -0.72748
C        -11.26446       15.13641        0.64393
S        -11.35426       15.79778       -0.98279
C        -12.22600       17.20998       -0.54146
C        -12.67493       17.04997        0.75274
C        -12.08458       15.92190        1.45337
C        -12.36837       15.68703        2.81234
C        -13.35061       16.55345        3.39351
C        -13.78002       16.31130        4.78902
C        -13.87413       15.09665        5.33807
C        -13.93003       17.65613        2.67272
C        -14.96798       18.56915        3.28785
C        -13.60277       17.92746        1.32740
C        -12.41860       18.24088       -1.52050
C        -12.51803       19.53546       -1.17276
C        -12.76957       20.61707       -2.10328
C        -12.45700       21.90788       -1.90249
C        -12.71701       22.95169       -2.86265
C        -12.23840       24.14889       -2.49957
C        -11.56382       24.15635       -1.21104
S        -11.62258       22.54432       -0.50141
C        -10.97159       25.22231       -0.63640
C        -10.89203       26.55617       -1.20854
C        -10.23820       27.44294       -0.44667
C         -9.75374       26.88269        0.78722
S        -10.16232       25.19607        0.93476
C         -9.07184       27.55343        1.71918
H         -3.21561       -0.55389        4.96742
H         -1.24486       -3.99800        1.89235
H         -1.64173       -1.84452        6.98184
H         -3.58859        0.22876       -1.08492
H         -6.45719        1.36144       -0.20558
H         -2.98983        4.77409        0.98992
H         -2.33770        2.42341        0.63835
H         -8.82833        4.54376       -1.60779
H         -8.18226        2.91313       -1.65858
H         -6.57900        5.40444       -2.45083
H         -7.42569        4.31976       -3.55560
H         -6.06266        3.71312       -2.61578
H         -8.72706        2.54893        0.69823
H         -9.39535        4.16544        0.84779
H         -7.28487        2.88428        2.65310
H         -8.94888        3.30836        3.05471
H         -7.76686        4.58943        2.77448
H         -8.88506        6.62941       -0.07358
H         -5.47294        8.99222        1.18983
H         -4.08426        6.98266        1.29663
H         -8.91747        9.11420       -0.30782
H         -7.13141       10.32396        1.91431
H        -11.90470       14.90654        3.39347
H        -14.07936       17.16665        5.38438
H        -13.63087       14.21475        4.77175
H        -14.22728       14.94902        6.35224
H        -14.63809       18.94886        4.25821
H        -15.92119       18.04207        3.38843
H        -15.13899       19.45256        2.66062
H        -14.08054       18.74148        0.79708
H        -12.42519       17.96014       -2.57066
H        -12.41567       19.83395       -0.13151
H        -13.26902       20.33545       -3.02889
H        -13.23531       22.77030       -3.79401
H        -12.34137       25.02765       -3.11874
H        -11.31528       26.81610       -2.16739
H        -10.08210       28.47677       -0.72093
H         -8.83070       28.60442        1.59842
H         -8.73439       27.07110        2.63076
