112

C        -12.60457       -1.76451       -0.13542
C        -13.77578       -2.20862       -0.74711
F        -14.91567       -1.53174       -0.55135
C        -13.77040       -3.34529       -1.54258
F        -14.90812       -3.79414       -2.09012
C        -12.58333       -4.02188       -1.79145
C        -11.38545       -3.56345       -1.22488
C        -11.39569       -2.45381       -0.33216
C        -10.20984       -2.08806        0.35417
C         -9.02994       -2.79523        0.13952
C         -9.03070       -3.72583       -0.89945
C        -10.17307       -4.17189       -1.54411
C         -7.66695       -4.15618       -1.19143
O         -7.29588       -4.59626       -2.26078
C         -6.85137       -3.82282        0.02428
C         -7.69579       -2.87991        0.83028
C         -7.42306       -2.33670        2.04598
C         -6.23835       -2.62058        2.78747
N         -5.29176       -2.85867        3.41046
C         -8.32855       -1.47432        2.72793
N         -9.05571       -0.75932        3.28206
C         -5.66091       -4.40858        0.27939
C         -4.94492       -5.50065       -0.44493
C         -5.63650       -6.59065       -1.01754
C         -7.04005       -7.02238       -0.89166
O         -7.85086       -6.66441       -0.05730
O         -7.26905       -7.98216       -1.83805
C         -6.05763       -8.35439       -2.50842
C         -5.03310       -7.53548       -1.83146
C         -3.66586       -7.59126       -1.94991
C         -2.92168       -6.62140       -1.27793
C         -3.52424       -5.54114       -0.56054
C         -2.51510       -4.53964       -0.10381
C         -2.44120       -3.79351        1.01412
C         -1.28360       -2.99432        1.35310
N         -1.31504       -1.63891        1.69790
C         -2.49712       -0.86388        1.95538
C         -0.04735       -1.16878        2.10783
O          0.30394       -0.07570        2.50581
C          0.78584       -2.36552        2.00842
C         -0.03479       -3.44215        1.53222
C          0.78046       -4.66491        1.54755
O          0.41844       -5.78791        1.26140
N          2.03189       -4.19269        2.00355
C          3.14960       -5.07846        2.18374
C          1.99915       -2.82839        2.31082
C          3.00898       -2.11179        3.05375
C          4.33497       -2.13607        2.84373
C          5.37473       -1.54537        3.72240
C          5.36873       -1.62603        5.12497
C          4.39421       -2.20282        6.06954
O          3.36287       -2.79533        5.82778
O          4.85846       -1.96733        7.33519
C          6.14037       -1.32963        7.33450
C          6.42543       -1.15411        5.89840
C          7.56336       -0.61539        5.33056
C          7.61455       -0.52404        3.94635
C          6.53604       -0.96312        3.14446
C          6.70619       -0.73857        1.70130
C          6.29442        0.35683        1.04591
C          5.58216        1.47915        1.62810
C          4.39511        1.93021        1.18719
C          3.61178        1.22497        0.11540
O          4.00188        0.44729       -0.73188
C          2.22457        1.67693        0.26851
C          1.13641        1.18731       -0.43708
C         -0.13083        1.67770       -0.11292
C         -0.27427        2.63471        0.93827
C         -1.56040        3.06735        1.29516
C         -2.67460        2.56904        0.62795
C         -2.52865        1.65113       -0.40320
C         -1.26781        1.20147       -0.77798
F         -3.61083        1.14244       -1.00822
F         -3.89885        2.94782        1.01982
C          0.86578        3.11078        1.62339
C          2.13104        2.65723        1.26480
C          3.50295        2.98492        1.72627
C          3.87993        4.14769        2.32741
C          5.23873        4.48476        2.52593
N          6.36035        4.77037        2.67477
C          2.94292        5.15167        2.70685
N          2.18199        5.97739        3.00887
H        -12.65490       -0.88026        0.49465
H        -12.60710       -4.90446       -2.42524
H        -10.26609       -1.26234        1.05597
H        -10.10583       -4.99055       -2.25568
H         -5.12551       -4.12916        1.16963
H         -6.14236       -8.09433       -3.57000
H         -5.90175       -9.42827       -2.38862
H         -3.17704       -8.36599       -2.53345
H         -1.83385       -6.70062       -1.33405
H         -1.66335       -4.47781       -0.78589
H         -3.20381       -3.82307        1.78148
H         -3.01344       -1.30297        2.81061
H         -3.14921       -0.84584        1.07987
H         -2.21980        0.15713        2.23313
H          2.88264       -6.09647        1.88618
H          3.46534       -5.08260        3.23017
H          3.96476       -4.74169        1.53772
H          2.60552       -1.54906        3.89685
H          4.71688       -2.63467        1.95626
H          6.86430       -1.98295        7.82911
H          6.06538       -0.37051        7.85521
H          8.39537       -0.27170        5.93838
H          8.50321       -0.10086        3.47851
H          7.21884       -1.53049        1.16004
H          6.47234        0.40974       -0.02852
H          6.06860        1.91870        2.49459
H          1.28434        0.42014       -1.19160
H         -1.71327        3.77135        2.10920
H         -1.19035        0.45697       -1.56537
H          0.71941        3.80613        2.44525
