90

C         -9.30502       -2.33433       -8.94973
C         -9.06020       -3.57684       -8.46587
C         -9.09087       -4.74836       -9.29986
N         -9.11912       -5.69375       -9.97423
C         -8.67559       -3.82689       -7.12027
N         -8.36615       -4.02251       -6.02565
C         -9.57117       -1.96929      -10.37781
C         -9.33553       -0.60085      -10.53051
C         -9.49171        0.08415      -11.72739
C         -9.97136       -0.64093      -12.84257
C        -10.24175       -2.01034      -12.69052
C        -10.03911       -2.69928      -11.46856
S        -10.85694       -2.68911      -14.15689
C        -10.78882       -1.20148      -14.95021
C        -10.28523       -0.19340      -14.17245
Br       -11.36130       -0.95352      -16.71666
C         -9.01688        0.01577       -9.22966
O         -8.72171        1.17700       -9.02470
C         -9.19097       -1.07048       -8.21672
C         -9.37833       -0.77923       -6.92206
N         -9.32679        0.45316       -6.29584
C         -9.53767        0.73678       -4.97282
S        -10.48450       -0.29725       -3.95056
C        -10.25796        0.69639       -2.61455
N        -10.88022        0.35306       -1.37674
O        -11.58093        1.23006       -0.85512
O        -10.65085       -0.77095       -0.91464
C         -9.49482        1.80525       -2.87601
C         -9.08108        1.85393       -4.25212
C         -8.26572        2.89146       -4.83651
C         -7.79077        3.98310       -4.20673
C         -6.96718        4.99677       -4.89259
C         -5.56846        4.98134       -4.93005
C         -4.80450        5.99998       -5.62032
N         -3.46175        5.88078       -5.63165
C         -2.86382        4.81363       -5.04501
C         -3.59102        3.89890       -4.33197
N         -4.94538        3.97520       -4.27450
C         -2.97715        2.87353       -3.54240
N         -2.44803        2.08454       -2.87710
C         -1.45362        4.69182       -5.26054
N         -0.31315        4.55935       -5.44801
C         -5.38495        7.11616       -6.29286
C         -6.81996        7.11760       -6.29726
C         -7.61596        6.06413       -5.56093
N         -8.94366        6.26730       -5.61642
S         -9.18747        7.62729       -6.52082
N         -7.62990        7.97189       -6.94808
C         -4.59036        8.21107       -6.94091
C         -3.36542        8.02684       -7.63936
F         -2.90625        6.77967       -7.83757
C         -2.56166        9.05386       -8.20003
F         -1.39736        8.67131       -8.75440
C         -2.90523       10.41349       -8.21948
C         -4.13812       10.69890       -7.56992
C         -4.96303        9.59700       -6.88534
N         -6.01275       10.11828       -6.22696
S         -6.12079       11.71794       -6.61632
N         -4.73352       11.90188       -7.48442
C         -2.11459       11.47167       -8.86460
C         -1.32054       11.26808       -9.94869
C         -0.81263       12.55636      -10.35088
C         -0.02810       12.90585      -11.38676
C          0.26700       14.31973      -11.51179
C          0.99554       14.99399      -12.42130
C          1.01520       16.42794      -12.07962
C          0.24746       16.62497      -10.98287
C         -0.23596       15.33244      -10.57157
C         -1.01989       14.98250       -9.53804
C         -1.32457       13.57081       -9.42482
C         -2.08376       12.91321       -8.53963
C          1.67043       17.47559      -12.82586
C          2.11916       18.62010      -12.29324
H         -9.30046        1.15249      -11.78863
H        -10.29579       -3.75125      -11.41422
H        -10.16637        0.82832      -14.51310
H         -9.61322       -1.57419       -6.22164
H         -9.02824        1.20564       -6.92512
H         -9.24780        2.53799       -2.11622
H         -8.01500        2.77793       -5.88937
H         -7.98952        4.18467       -3.15960
H         -1.12058       10.34552      -10.46891
H          0.36434       12.19444      -12.10065
H          1.51410       14.57095      -13.26760
H          0.02044       17.55696      -10.49371
H         -1.41664       15.69452       -8.82727
H         -2.61322       13.36398       -7.71391
H          1.82360       17.28795      -13.88620
H          2.02120       18.83962      -11.23451
H          2.61829       19.36063      -12.90872
