115

C         -5.77990       -4.65105       -8.94659
C         -5.82333       -4.62627      -10.33017
C         -7.01847       -4.21639      -10.98191
C         -7.03433       -4.20373      -12.41149
N         -7.03577       -4.21303      -13.57098
C         -8.16831       -3.85758      -10.24608
C         -9.39351       -3.47058      -10.88242
N        -10.39887       -3.16047      -11.36838
C         -8.12940       -3.89516       -8.85850
C         -6.94440       -4.29555       -8.26193
C         -6.76664       -4.43845       -6.82827
O         -7.55020       -3.94336       -6.05022
C         -5.47222       -5.17567       -6.63645
C         -4.74514       -5.03144       -7.93175
C         -3.40575       -5.05770       -8.12990
C         -2.81813       -4.75661       -9.39735
N         -2.36700       -4.50220      -10.43324
C         -2.47714       -5.31157       -7.08231
N         -1.72496       -5.52955       -6.22531
C         -5.18144       -5.99012       -5.60474
C         -6.04310       -6.25561       -4.49585
S         -5.99464       -7.81636       -3.76192
C         -7.25082       -7.44838       -2.65547
C         -7.69728       -6.15981       -2.82921
C         -6.95699       -5.46884       -3.82140
C         -7.74946       -8.38827       -1.68753
C         -9.02793       -8.44347       -1.16917
C         -9.18153       -9.49091       -0.21557
C         -8.01199      -10.19954       -0.00852
S         -6.74899       -9.57669       -0.98226
C         -7.78486      -11.31664        0.87742
S         -9.04061      -11.95983        1.84607
C         -8.02884      -13.16580        2.53429
C         -6.74643      -13.06170        2.03152
C         -6.60787      -12.01085        1.08313
C         -8.60112      -14.06974        3.47093
C         -7.88238      -15.03527        4.06245
C         -8.47893      -15.93558        4.98464
S         -7.50278      -16.71370        6.18899
C         -8.83214      -17.52937        6.90121
C         -8.71560      -18.45354        8.05996
C         -8.16519      -17.77710        9.30695
C         -9.96880      -17.25563        6.20961
C         -9.76160      -16.38359        5.14305
N        -10.83251      -16.06875        4.35558
C        -11.90345      -16.70596        4.85369
S        -11.69116      -17.75703        6.32435
C        -13.22613      -16.63935        4.32809
C        -13.42900      -16.36585        3.02967
C        -14.74469      -16.27515        2.49461
S        -15.03315      -15.27177        1.12924
C        -16.71194      -15.61514        1.10706
C        -17.04156      -16.50847        2.10761
C        -15.91708      -16.89183        2.89308
C        -17.59513      -15.01223        0.13705
C        -17.29187      -14.58497       -1.14141
C        -18.42168      -14.04360       -1.82450
C        -19.56685      -14.06360       -1.05350
S        -19.24784      -14.73467        0.49205
C        -20.88918      -13.60892       -1.40900
S        -21.14419      -12.34106       -2.53548
C        -22.85539      -12.40494       -2.36353
C        -23.20825      -13.40172       -1.47508
C        -22.09054      -14.08634       -0.92749
C        -23.67557      -11.49866       -3.11072
C        -25.00775      -11.53204       -2.98881
C        -25.93235      -10.67325       -3.67789
C        -26.13877      -10.52110       -4.99124
C        -27.07250       -9.41590       -5.38265
O        -27.83278       -8.78480       -4.67943
C        -26.85067       -9.19299       -6.81452
C        -27.47954       -8.22621       -7.58348
C        -27.12721       -8.13273       -8.93288
C        -26.11993       -8.97279       -9.45497
C        -25.49357       -9.94152       -8.63728
C        -25.89132      -10.08798       -7.31313
C        -25.56041      -11.07014       -6.22957
C        -25.07909      -12.32072       -6.44308
C        -25.12523      -13.35580       -5.46197
N        -25.19287      -14.24357       -4.72025
C        -24.60975      -12.75914       -7.71534
N        -24.23105      -13.09367       -8.76022
C        -25.71563       -8.87588      -10.83039
N        -25.37636       -8.80768      -11.93653
C        -27.81805       -7.18473       -9.75892
N        -28.39937       -6.42482      -10.41272
H         -4.98067       -4.92749      -10.94339
H         -8.99625       -3.64591       -8.24306
H         -4.27768       -6.59722       -5.63546
H         -8.48754       -5.70049       -2.24832
H         -7.13979       -4.42630       -4.02874
H         -9.82983       -7.77657       -1.46325
H        -10.11588       -9.70322        0.29027
H         -5.92901      -13.71200        2.31689
H         -5.67488      -11.78753        0.58005
H         -9.65969      -13.95389        3.69904
H         -6.82013      -15.14636        3.86553
H         -8.07006      -19.29607        7.78508
H         -9.69306      -18.88302        8.30831
H         -7.15301      -17.39167        9.14527
H         -8.11810      -18.49540       10.13157
H         -8.79962      -16.94047        9.61828
H        -14.05390      -16.79615        5.01107
H        -12.58439      -16.19019        2.36390
H        -18.04351      -16.88603        2.27310
H        -15.97539      -17.59511        3.71496
H        -16.30673      -14.66699       -1.58456
H        -18.38683      -13.67247       -2.84161
H        -24.22965      -13.64866       -1.21406
H        -22.18022      -14.89765       -0.21553
H        -23.19152      -10.78574       -3.77609
H        -25.49340      -12.20816       -2.28816
H        -26.54521      -10.09313       -2.98163
H        -28.23213       -7.57685       -7.13999
H        -24.71411      -10.55777       -9.07850
