101

C         -4.00288       -1.92972        2.18816
C         -3.64111       -0.83657        2.96546
C         -4.63118        0.07076        3.41698
C         -4.23341        1.19084        4.19589
N         -3.88352        2.09900        4.82896
C         -5.99587       -0.12891        3.09605
C         -7.02140        0.74871        3.56326
N         -7.87143        1.44108        3.93546
C         -6.36286       -1.21899        2.30987
C         -5.35937       -2.07449        1.87832
C         -5.58274       -3.24644        1.04178
O         -6.61963       -3.44482        0.44714
C         -4.28581       -4.00351        1.01724
C         -3.25338       -3.07822        1.58057
C         -1.90347       -3.18695        1.48872
C         -1.00887       -2.18345        1.97696
N         -0.29004       -1.35786        2.37493
C         -1.24848       -4.28403        0.86161
N         -0.70791       -5.18115        0.35906
C         -4.19949       -5.29895        0.66479
C         -5.25025       -6.21458        0.22348
C         -6.01583       -5.92850       -0.84702
C         -6.98029       -6.85250       -1.37582
C         -7.24395       -8.14853       -0.74125
C         -6.60494       -8.61079        0.33316
S         -5.29775       -7.75043        1.09821
C         -8.20393       -8.79959       -1.53654
C         -8.53598       -7.99912       -2.60331
C         -9.39138       -8.63964       -3.51710
C         -9.68697       -9.92224       -3.07445
S         -8.91429      -10.30991       -1.57158
C         -7.78930       -6.75956       -2.47527
C         -7.82192       -5.64740       -3.40850
C         -8.90693       -5.27898       -4.10383
N         -9.03693       -4.26898       -5.03538
C        -10.17280       -3.93016       -5.71566
C        -11.45462       -4.18641       -5.26741
S        -12.65735       -3.69147       -6.37508
C        -11.47981       -3.07795       -7.44633
C        -10.19267       -3.22452       -6.96882
N         -9.08393       -2.81408       -7.64831
C         -9.00410       -1.76636       -8.54088
C         -7.92342       -1.34388       -9.21506
C         -7.89685       -0.21686      -10.14907
C         -7.01752       -0.22971      -11.17530
C         -6.94892        0.83999      -12.14240
C         -7.74366        2.06772      -11.99555
C         -8.63935        2.28098      -11.03834
S         -9.00485        1.11841       -9.80926
C         -7.40968        2.90001      -13.08152
C         -6.50363        2.25842      -13.88754
C         -6.15617        3.00042      -15.02886
C         -6.80885        4.22480      -15.00996
S         -7.84085        4.41754      -13.62677
C         -6.21166        0.97589      -13.28676
C         -5.31540        0.00143      -13.86276
C         -3.99852        0.13077      -14.10052
C         -3.17048        1.27835      -13.77094
C         -1.84884        1.42206      -13.97293
C         -0.98480        0.39890      -14.65957
O         -1.24688       -0.73531      -14.99919
C          0.29929        1.05568      -14.92800
C          1.37891        0.47276      -15.57779
C          2.48739        1.27501      -15.86164
C          2.46555        2.64336      -15.51898
C          1.35569        3.19841      -14.83800
C          0.27927        2.38622      -14.49318
C         -0.98054        2.60178      -13.71254
C         -1.17348        3.58251      -12.79263
C         -2.29431        3.61193      -11.91272
N         -3.19420        3.63012      -11.17999
C         -0.22589        4.62151      -12.56559
N          0.55620        5.46194      -12.39873
C          3.56632        3.50513      -15.85413
N          4.44362        4.21165      -16.12569
C          3.61832        0.67599      -16.51319
N          4.52127        0.16784      -17.03193
H         -2.61575       -0.63820        3.26080
H         -7.39923       -1.41330        2.04007
H         -3.24909       -5.82194        0.72561
H         -5.91692       -4.97542       -1.35129
H         -6.85721       -9.58553        0.74035
H         -9.75462       -8.23332       -4.45156
H        -10.29967      -10.66833       -3.56125
H         -6.90404       -5.07646       -3.51432
H         -9.83245       -5.82911       -3.95475
H         -8.16339       -3.81280       -5.28283
H        -11.76065       -4.64240       -4.33739
H        -11.79127       -2.66380       -8.39416
H         -8.21636       -3.32606       -7.52796
H         -9.95506       -1.25006       -8.66945
H         -6.98685       -1.87769       -9.08344
H         -6.33727       -1.06583      -11.31119
H         -9.20505        3.20485      -11.00513
H         -5.48416        2.68500      -15.81559
H         -6.74860        5.02229      -15.73743
H         -5.79616       -0.93100      -14.15909
H         -3.51421       -0.71717      -14.58152
H         -3.73148        2.09493      -13.32799
H          1.34698       -0.57942      -15.85604
H          1.37145        4.26226      -14.61079
