107

C        -10.60925      -11.74785       -1.91439
C        -10.49192      -12.84713       -2.75381
C         -9.29290      -13.59798       -2.76344
C         -9.19527      -14.71542       -3.63485
N         -9.13696      -15.62227       -4.35703
C         -8.19728      -13.22215       -1.94457
C         -6.95736      -13.94652       -1.95769
N         -5.94405      -14.50708       -1.96081
C         -8.30538      -12.10889       -1.11470
C         -9.50106      -11.40626       -1.13015
C         -9.74101      -10.16535       -0.39504
O         -8.96814       -9.72771        0.42622
C        -11.05098       -9.63276       -0.90337
C        -11.68963      -10.74874       -1.65163
C        -13.01322      -10.92691       -1.88676
C        -13.53216      -12.10496       -2.50155
N        -13.93289      -13.06936       -3.00659
C        -13.99463       -9.98394       -1.46593
N        -14.78911       -9.21009       -1.12954
C        -11.39609       -8.33390       -0.84400
C        -10.64303       -7.24004       -0.23545
C        -10.22042       -6.23381       -1.02886
C         -9.46143       -5.11880       -0.51936
C         -9.15988       -4.97297        0.91065
C         -9.50904       -5.85410        1.84611
S        -10.44820       -7.28000        1.51254
C         -8.46179       -3.75715        1.05397
C         -8.30644       -3.16772       -0.17638
C         -7.63565       -1.93425       -0.11922
C         -7.33847       -1.61830        1.19724
S         -7.84825       -2.84568        2.31201
C         -8.92766       -4.03190       -1.15611
C         -8.95155       -3.78761       -2.57938
C         -8.91708       -2.56803       -3.14462
C         -8.93866       -2.37110       -4.55634
S         -9.87385       -3.42722       -5.55953
C         -9.39654       -2.66637       -7.01879
C         -8.58073       -1.58895       -6.74984
C         -8.35674       -1.38262       -5.33539
C         -7.59526       -0.31374       -4.82333
C         -7.08896        0.54792       -5.83720
C         -6.29728        1.73148       -5.38010
O         -5.66375        1.73899       -4.33725
O         -6.42320        2.82466       -6.16538
C         -7.30084        0.30018       -7.23650
O         -6.74896        1.17747       -8.14659
C         -8.05300       -0.77441       -7.75630
C         -9.93540       -3.17273       -8.23107
C         -9.29812       -4.13224       -8.92119
C         -9.79304       -4.77847      -10.13310
C         -8.89392       -5.24236      -11.02766
C         -9.28531       -5.95453      -12.21714
C        -10.70097       -6.19434      -12.53298
C        -11.72838       -5.82511      -11.77234
S        -11.53879       -4.99537      -10.26467
C        -10.73281       -6.88062      -13.75760
C         -9.45188       -7.08112      -14.20660
C         -9.41146       -7.79562      -15.41668
C        -10.69882       -8.07873      -15.84792
S        -11.91492       -7.49461      -14.76252
C         -8.54485       -6.48551      -13.24056
C         -7.09560       -6.48931      -13.35163
C         -6.44167       -6.50862      -14.52506
C         -5.01152       -6.56109      -14.71596
C         -4.07434       -5.72533      -14.24935
C         -2.63377       -6.08123      -14.43560
O         -2.15076       -6.88638      -15.20232
C         -1.89994       -5.27204      -13.44872
C         -0.52672       -5.27421      -13.25849
C         -0.00225       -4.43280      -12.27131
C         -0.86999       -3.65168      -11.47636
C         -2.26651       -3.67692      -11.69207
C         -2.78377       -4.45980      -12.71487
C         -4.12790       -4.56248      -13.35783
C         -5.04262       -3.56392      -13.38019
C         -5.93394       -3.40060      -14.48563
N         -6.58766       -3.20472      -15.41904
C         -5.09556       -2.54066      -12.39546
N         -5.15942       -1.74825      -11.54555
C         -0.35864       -2.77926      -10.45721
N          0.02759       -2.06012       -9.63314
C          1.42242       -4.36937      -12.10773
N          2.57523       -4.31858      -11.99842
H        -11.29149      -13.15179       -3.42511
H         -7.48117      -11.77317       -0.48757
H        -12.27656       -7.97766       -1.37567
H        -10.46096       -6.23331       -2.08731
H         -9.22623       -5.69469        2.88139
H         -7.39245       -1.28468       -0.94963
H         -6.85054       -0.72555        1.56386
H         -9.00186       -4.68144       -3.19724
H         -8.87567       -1.67695       -2.52956
H         -7.40863       -0.13513       -3.76996
H         -6.84413        2.62206       -7.02915
H         -6.75839        0.75860       -9.02953
H         -8.20602       -0.93892       -8.81359
H        -10.89443       -2.77294       -8.54775
H         -8.33395       -4.49467       -8.56560
H         -7.83434       -5.07013      -10.87410
H        -12.74573       -6.04666      -12.08007
H         -8.52785       -8.09320      -15.96522
H        -10.99652       -8.60318      -16.74504
H         -6.53975       -6.48526      -12.41743
H         -6.99672       -6.51993      -15.46144
H         -4.69648       -7.40003      -15.34340
H          0.11344       -5.89456      -13.88351
H         -2.89906       -3.05651      -11.06253
