140

C          0.50498       -1.83736       -6.62509
C          0.76786       -1.86017       -5.24303
N          0.02773       -2.35363       -4.18392
C         -1.35494       -2.79032       -4.33302
C         -2.31269       -1.67591       -4.73193
C          0.77088       -2.31845       -3.01123
C          1.91407       -1.55872       -3.30654
C          1.91422       -1.28357       -4.70568
C          2.81422       -0.62186       -5.56771
C          2.54940       -0.57216       -6.94019
C          1.41162       -1.18338       -7.45925
C          2.83431       -1.26128       -2.27351
C          2.62402       -1.74458       -0.98246
C          1.52088       -2.54470       -0.71567
C          0.59022       -2.85356       -1.71575
C         -0.46714       -3.82637       -1.43630
C         -0.26235       -5.11685       -1.72256
C         -1.27839       -6.14916       -1.40943
C         -2.25944       -6.58754       -2.30469
C         -2.29103       -6.24740       -3.76731
O         -3.34282       -5.75137       -4.15496
C         -1.13494       -6.46318       -4.67098
C          0.02375       -7.10004       -4.24064
S          1.36612       -6.83944       -5.25413
C          0.37759       -6.11229       -6.41974
C         -0.97745       -6.08420       -6.09090
C         -1.88338       -5.57600       -7.15066
O         -1.40691       -4.98322       -8.12438
C         -3.35827       -5.74368       -7.17694
C         -4.02864       -6.79743       -6.55841
C         -5.42385       -6.76615       -6.45692
C         -6.15558       -5.74593       -7.06577
C         -5.50065       -4.78251       -7.82550
C         -4.10743       -4.78240       -7.88184
C         -3.31921       -7.36473       -1.81440
C         -3.36043       -7.76123       -0.47652
C         -2.31783       -7.42899        0.40003
C         -1.29582       -6.60199       -0.08321
C         -2.30156       -7.91897        1.78354
N         -1.64073       -7.22942        2.78612
C         -1.75660       -7.93972        3.94279
C         -1.36637       -7.89894        5.30201
C         -1.95176       -9.01695        5.87064
N         -2.62567       -9.72579        4.89355
C         -2.49904       -9.03705        3.71472
C         -2.87617       -9.05561        2.34966
C         -2.00292       -9.51351        7.20153
C         -1.45734       -8.80119        8.20358
C         -1.43447       -9.16851        9.63362
C         -1.43721       -8.23324       10.68327
C         -2.22271       -6.93492       10.77014
O         -2.33253       -6.42193       11.88264
C         -2.87930       -6.29164        9.62743
C         -3.68889       -7.01243        8.76259
S         -4.25533       -6.11509        7.43664
C         -3.66583       -4.68220        8.12593
C         -3.00904       -4.85796        9.34146
C         -2.66417       -3.62662       10.09269
O         -3.33969       -2.61103        9.90309
C         -1.54498       -3.48915       11.06916
C         -1.53805       -2.36284       11.91600
C         -0.57288       -2.22353       12.91675
C          0.36814       -3.22863       13.11025
C          0.40929       -4.31277       12.23679
C         -0.49769       -4.39914       11.17713
C         -0.74089       -8.58648       11.85351
C         -0.22847       -9.87505       12.04108
C         -0.48838      -10.89747       11.12054
C         -1.10940      -10.50873        9.92603
C         -0.17473      -12.31420       11.42062
C          0.10524      -13.32033       10.44617
N          0.42875      -13.29903        9.08538
C          1.17607      -12.22750        8.43474
C          2.67454      -12.47270        8.42646
C          0.20811      -14.55206        8.51128
C          0.21014      -15.44281        9.59048
C          0.16204      -14.67739       10.79334
C          0.08047      -15.06530       12.14561
C         -0.11994      -14.10608       13.12514
C         -0.27602      -12.77566       12.76070
C          0.18044      -16.83353        9.35417
C          0.09591      -17.31362        8.05193
C          0.01959      -16.42281        6.98936
C          0.08202      -15.02712        7.17972
C         -0.14729      -14.10051        6.06570
C          0.20129      -14.33909        4.79362
H         -0.37621       -2.31127       -7.04717
H         -1.71433       -3.21395       -3.40128
H         -1.36396       -3.58132       -5.08242
H         -2.21276       -0.81060       -4.07124
H         -3.34447       -2.03801       -4.68041
H         -2.13742       -1.34082       -5.75818
H          3.71339       -0.16109       -5.17233
H          3.24229       -0.06469       -7.60421
H          1.22237       -1.14770       -8.53054
H          3.72152       -0.67281       -2.49272
H          3.34309       -1.52284       -0.19926
H          1.40092       -2.95352        0.28827
H         -1.37443       -3.45025       -0.99310
H          0.68639       -5.45884       -2.14013
H          0.20999       -7.60761       -3.30482
H          0.82907       -5.74743       -7.33607
H         -3.48433       -7.60486       -6.08095
H         -5.93803       -7.51806       -5.86411
H         -7.23526       -5.70297       -6.94824
H         -6.06687       -4.01456       -8.34656
H         -3.60512       -4.01083       -8.46404
H         -4.14359       -7.64004       -2.46941
H         -4.21754       -8.32377       -0.11297
H         -0.47978       -6.30103        0.57969
H         -1.15059       -6.34763        2.71850
H         -0.77125       -7.14553        5.78894
H         -3.14664      -10.58278        4.98336
H         -3.45940       -9.80595        1.83668
H         -2.52421      -10.44593        7.40294
H         -0.94058       -7.86672        7.98983
H         -3.94243       -8.06232        8.81251
H         -3.88023       -3.74114        7.63384
H         -2.29258       -1.58407       11.80783
H         -0.57628       -1.34635       13.56012
H          1.07548       -3.16435       13.93266
H          1.13801       -5.10469       12.38791
H         -0.39134       -5.21724       10.47791
H         -0.60780       -7.86153       12.65678
H          0.31711      -10.07864       12.96066
H         -1.29943      -11.26788        9.17103
H          1.01321      -11.29294        8.96479
H          0.79175      -12.08134        7.42536
H          3.18464      -11.63843        7.93399
H          2.93232      -13.39495        7.89854
H          3.05911      -12.54492        9.44955
H          0.13545      -16.11509       12.41902
H         -0.20785      -14.40073       14.16717
H         -0.52362      -12.07756       13.55944
H          0.18329      -17.52940       10.18839
H          0.04518      -18.38404        7.87187
H         -0.11739      -16.83417        5.99161
H         -0.68541      -13.18597        6.29644
H          0.71955      -15.24220        4.48674
H         -0.03654      -13.62372        4.01234
