113

C         -4.01782       -2.20158       -0.55752
C         -2.82789       -2.56654       -0.02287
C         -2.30245       -3.88162       -0.15069
N         -1.87819       -4.95794       -0.25259
C         -1.97530       -1.63993        0.65260
N         -1.28829       -0.88812        1.20093
C         -4.91418       -3.03594       -1.41223
C         -5.76331       -2.17931       -2.11942
C         -6.76304       -2.61357       -2.98173
C         -6.94232       -4.00737       -3.12991
C         -6.09398       -4.87536       -2.42403
C         -5.07026       -4.40998       -1.55769
S         -6.48743       -6.52747       -2.75006
C         -7.75571       -6.09138       -3.77437
C         -7.91209       -4.73724       -3.90000
Br        -8.84421       -7.34036       -4.64875
C         -5.51814       -0.77693       -1.74375
O         -5.96489        0.19456       -2.31412
C         -4.60230       -0.84502       -0.55750
C         -4.56171        0.08124        0.41388
C         -5.32708        1.33061        0.44991
C         -4.78432        2.49763       -0.09370
C         -5.50554        3.67636        0.03783
C         -6.76752        3.70020        0.67014
C         -7.30664        2.54636        1.20634
C         -6.57798        1.36026        1.10197
C         -7.27441        5.05329        0.67112
C         -6.31992        5.90642        0.07817
C         -5.12200        5.08678       -0.42008
C         -3.79714        5.56796        0.23510
C         -3.74831        5.49757        1.76280
C         -4.99786        5.14537       -1.96938
C         -6.18043        4.56973       -2.75352
C         -6.51957        7.27997        0.03548
C         -7.70022        7.80386        0.58218
C         -8.68332        6.93195        1.09334
C         -8.46724        5.55490        1.15657
C         -7.90416        9.25566        0.55533
C         -8.66913        9.92746        1.42997
C         -8.88222       11.33096        1.33567
O         -9.09330       12.07295        2.48418
C         -9.18136       13.38026        2.15133
C         -9.05769       13.53047        0.79377
N         -9.10589       14.78627        0.11457
O         -9.27903       15.79720        0.80770
O         -8.96154       14.76979       -1.11488
C         -8.92131       12.21852        0.25160
N         -8.81215       11.95790       -1.08136
C         -9.20532       10.85718       -1.82102
C         -9.00903       10.67500       -3.13446
C         -9.41612        9.53166       -3.90897
C         -9.08138        9.61803       -5.20567
C         -8.34995       10.82784       -5.54803
S         -8.17692       11.84815       -4.11787
C         -7.82086       11.14027       -6.74681
C         -7.91255       10.37135       -7.97407
C         -7.12264       10.82361       -8.96126
C         -6.32872       11.97262       -8.58378
S         -6.82155       12.56329       -7.01581
C         -5.29888       12.46267       -9.29510
C         -4.40450       13.51070       -8.84806
C         -3.06820       13.32795       -8.69997
C         -2.56291       14.50042       -8.02371
C         -1.34877       14.76156       -7.50352
C         -1.23563       15.98847       -6.73484
C         -0.22621       16.47533       -5.98702
C         -0.65529       17.71633       -5.31260
C         -1.90894       18.02057       -5.72134
C         -2.34050       16.94670       -6.57998
C         -3.53829       16.70910       -7.14115
C         -3.66973       15.44816       -7.84124
C         -4.75459       14.85642       -8.36195
C          0.13782       18.50007       -4.39355
C         -0.35297       19.22955       -3.38251
H         -7.40708       -1.89959       -3.48828
H         -4.47432       -5.13596       -1.01685
H         -8.68009       -4.27184       -4.50635
H         -3.99507       -0.07218        1.32789
H         -3.82111        2.49088       -0.59272
H         -8.26522        2.56123        1.71970
H         -6.98519        0.45682        1.54830
H         -3.59583        6.60611       -0.06042
H         -2.95889        4.97313       -0.15085
H         -4.55107        6.07871        2.22581
H         -2.79779        5.90476        2.12337
H         -3.81672        4.46589        2.12106
H         -4.09965        4.59763       -2.28541
H         -4.85153        6.18550       -2.28761
H         -6.23474        3.48074       -2.65100
H         -6.06312        4.78699       -3.82013
H         -7.13544        4.99472       -2.43231
H         -5.76197        7.93393       -0.38802
H         -9.63133        7.31949        1.45824
H         -9.22265        4.90600        1.58481
H         -7.38286        9.77732       -0.24252
H         -9.12032        9.42735        2.28285
H         -9.32845       14.06942        2.97267
H         -8.54675       12.73276       -1.70479
H         -9.72399       10.09431       -1.24637
H         -9.93257        8.68724       -3.47352
H         -9.30258        8.84146       -5.92365
H         -8.54930        9.50457       -8.07891
H         -7.04610       10.35772       -9.93388
H         -5.02664       11.99210      -10.23654
H         -2.50151       12.43605       -8.91138
H         -0.51530       14.07574       -7.57247
H          0.73744       16.01587       -5.83330
H         -2.51295       18.86478       -5.43324
H         -4.38882       17.36670       -7.02386
H         -5.75996       15.24818       -8.35558
H          1.21617       18.43703       -4.51963
H         -1.41670       19.29822       -3.17749
H          0.31435       19.75849       -2.70918
