76

C          7.05902        1.47660        3.67744
C          7.51233        0.87852        2.57482
C          8.44879        1.44001        1.64030
C          8.77465        0.60266        0.64631
C          8.10066       -0.68380        0.71504
S          7.01714       -0.72293        2.11165
C          8.25095       -1.70833       -0.14545
C          9.16351       -1.76216       -1.27243
C          9.06155       -2.87522       -2.00385
C          8.02724       -3.77081       -1.53658
S          7.32140       -3.20094       -0.05354
C          7.65946       -4.88393       -2.18376
C          6.57250       -5.77321       -1.84925
N          7.02652       -7.04719       -1.52262
C          6.01866       -7.76858       -1.15326
C          6.06174       -8.90280       -0.19429
C          5.06849       -8.32548        0.87332
N          4.06491       -7.35310        0.27868
S          4.46603       -6.94865       -1.35166
C          5.25150       -5.49110       -1.76120
C          4.52864       -4.30375       -2.07814
O          3.39539       -3.94670       -1.34984
C          2.85489       -2.76416       -1.81164
C          3.63689       -2.37703       -2.87914
C          4.66638       -3.33978       -3.08364
C          5.61392       -3.20649       -4.21760
F          6.41840       -4.27624       -4.42743
F          4.94043       -3.02556       -5.39018
F          6.41776       -2.12109       -4.07725
C          1.71882       -2.06796       -1.28600
N          1.62628       -0.71686       -1.63366
C          0.53907       -0.23166       -1.12549
C         -0.24068        0.93129       -1.62961
C         -1.68316        0.30868       -1.62740
N         -1.78230       -0.96814       -0.83056
S         -0.29823       -1.37129       -0.07519
C          0.69338       -2.64611       -0.62627
C          0.52112       -4.00422       -0.19465
C         -0.54174       -4.79343       -0.40985
C         -0.63909       -6.14139        0.09385
C         -1.81035       -6.73263       -0.17451
C         -2.73666       -5.90147       -0.92674
S         -1.96204       -4.37112       -1.33579
C         -4.00397       -6.22743       -1.25144
C         -4.68271       -7.45791       -0.87879
C         -5.95585       -7.52869       -1.28927
C         -6.37934       -6.36843       -2.02789
S         -5.10083       -5.19415       -2.17463
C         -7.59768       -6.19064       -2.54489
H          7.37863        2.47484        3.95448
H          6.35825        0.97796        4.33911
H          8.84065        2.44276        1.73924
H          9.45840        0.87003       -0.14613
H          9.86932       -0.97467       -1.50202
H          9.65633       -3.07976       -2.88562
H          8.21299       -5.19381       -3.06895
H          7.06112       -9.08186        0.20629
H          5.65334       -9.79575       -0.67402
H          5.65044       -7.78678        1.63168
H          4.54044       -9.13967        1.38011
H          4.11481       -6.50781        0.85313
H          3.80495       -7.61540       -2.31415
H          3.46016       -1.49039       -3.47410
H          0.07676        1.24045       -2.62737
H         -0.16409        1.75284       -0.91331
H         -1.98921        0.10303       -2.65991
H         -2.39420        1.03717       -1.22213
H         -2.04055       -1.71451       -1.48360
H         -0.12460       -0.91315        1.17748
H          1.36864       -4.40696        0.35778
H          0.16227       -6.61565        0.64473
H         -2.03893       -7.73902        0.14360
H         -4.21360       -8.24332       -0.30494
H         -6.61067       -8.36491       -1.08782
H         -8.37470       -6.93907       -2.43375
H         -7.85371       -5.29029       -3.09410
