83

C         24.26170      -14.59954        1.11947
C         23.67355      -13.82322        2.03192
C         24.18653      -12.57146        2.51824
C         23.40638      -12.00308        3.44825
C         22.21719      -12.77603        3.77681
S         22.16203      -14.23869        2.78511
C         21.29248      -12.45881        4.70455
C         21.28912      -11.27183        5.54138
C         20.26575      -11.21317        6.40505
C         19.37613      -12.34842        6.32558
S         19.89846      -13.46842        5.09195
C         18.27647      -12.49941        7.07830
C         17.35579      -13.61990        7.00061
C         16.04909      -13.52406        6.71634
C         15.15774      -14.64961        6.56431
C         13.95752      -14.31991        6.06359
C         13.82856      -12.90652        5.75269
S         15.22433      -12.02651        6.37864
C         12.87491      -12.34090        4.98916
C         11.74841      -13.00540        4.35952
C         11.21952      -12.30763        3.34132
C         11.92273      -11.07061        3.08853
S         12.94872      -10.66914        4.44360
C         11.90451      -10.41343        1.91498
C         12.84647       -9.39013        1.61820
S         14.32467       -9.79817        0.79933
C         14.92500       -8.18843        0.84199
C         14.03509       -7.38325        1.48337
C         12.87116       -8.05069        1.88233
N         11.89455       -7.32395        2.50445
C         12.35844       -6.06966        2.57046
S         13.97531       -5.63427        1.92626
C         16.15344       -7.79210        0.25370
C         16.24831       -7.44110       -1.04012
C         17.47842       -7.11969       -1.73113
C         17.33495       -6.99211       -3.06163
C         15.97541       -7.22120       -3.52451
S         14.89453       -7.35907       -2.13790
C         15.56266       -7.42487       -4.79066
C         16.36482       -7.43759       -6.00158
C         15.77093       -8.07539       -7.02550
C         14.47787       -8.62292       -6.67156
S         13.91259       -7.91279       -5.18491
C         13.88290       -9.64792       -7.30143
C         12.69669      -10.34385       -6.82277
C         12.36482      -11.61905       -7.07534
C         11.21660      -12.27154       -6.49278
C         11.09271      -13.55766       -6.84558
C         12.13799      -14.03034       -7.73821
S         13.28194      -12.72804       -8.06360
C         12.23755      -15.27289       -8.25090
C         11.29857      -16.35814       -8.02842
C         11.63292      -17.50418       -8.63930
C         12.86115      -17.41364       -9.38360
S         13.54856      -15.81602       -9.30401
C         13.42723      -18.41639      -10.05911
H         25.20818      -14.32836        0.66589
H         23.81092      -15.53513        0.80187
H         25.11435      -12.14467        2.16381
H         23.65127      -11.06294        3.92045
H         22.04019      -10.49806        5.47552
H         20.10744      -10.39779        7.09776
H         18.00355      -11.72215        7.79002
H         17.80490      -14.60284        7.12766
H         15.45755      -15.66295        6.79262
H         13.18988      -15.04704        5.84225
H         11.40334      -13.98852        4.64870
H         10.41112      -12.66527        2.71548
H         11.27263      -10.75867        1.10343
H         11.77313       -5.27534        3.01510
H         17.04166       -7.83883        0.87674
H         18.42600       -7.03198       -1.21797
H         18.15863       -6.79384       -3.73173
H         17.35775       -7.01543       -6.06126
H         16.22598       -8.23632       -7.99302
H         14.36690      -10.06549       -8.18154
H         12.05325       -9.78121       -6.14764
H         10.53880      -11.76715       -5.81692
H         10.29463      -14.18702       -6.47953
H         10.40277      -16.25688       -7.43445
H         11.04602      -18.41067       -8.58630
H         12.97798      -19.40289      -10.08982
H         14.36039      -18.28075      -10.59682
