114

C         -2.46355        5.13686       -1.93561
C         -1.61741        4.18472       -2.40051
C         -0.37791        4.49086       -3.03049
N          0.63090        4.73721       -3.54607
C         -1.87042        2.78765       -2.24704
N         -2.08077        1.65412       -2.13236
C         -2.22561        6.61450       -1.92885
C         -3.13871        7.20465       -1.05224
C         -3.23071        8.57086       -0.81435
C         -2.32384        9.41369       -1.48941
C         -1.38849        8.83471       -2.36064
C         -1.33330        7.43747       -2.60719
S         -0.36025       10.03949       -3.05312
C         -1.15169       11.28151       -2.22889
C         -2.18424       10.84269       -1.44507
Br        -0.66232       13.08358       -2.37385
C         -4.01071        6.19457       -0.44716
O         -4.77417        6.40153        0.47184
C         -3.71981        4.91636       -1.18163
C         -4.57985        3.88598       -1.21788
C         -5.77903        3.86398       -0.47400
S         -7.27975        4.41729       -1.07124
C         -8.15793        3.93255        0.35243
C         -7.24563        3.38941        1.20212
C         -5.91716        3.35513        0.78361
S         -4.71137        2.65194        1.90804
C         -6.09614        2.25061        2.91815
C         -5.89436        1.46170        4.12043
O         -6.68897        1.38708        5.04975
O         -4.73955        0.73934        4.03025
C         -4.49657       -0.18800        5.09018
C         -5.26475       -1.47361        4.84419
C         -7.33496        2.73909        2.46249
C         -9.55981        4.13058        0.49025
C        -10.37765        4.14463       -0.57467
C        -11.80531        4.37663       -0.51668
C        -12.30445        5.41566       -1.21278
C        -13.70413        5.72977       -1.19566
C        -14.67958        4.92274       -0.45211
C        -14.37266        3.84222        0.26425
S        -12.75059        3.23507        0.42421
C        -15.93650        5.52147       -0.66812
C        -15.78891        6.62526       -1.47406
C        -17.00247        7.25528       -1.78502
C        -18.04849        6.58500       -1.16565
S        -17.51857        5.21981       -0.23096
C        -14.38700        6.75090       -1.78762
C        -13.81166        7.76804       -2.62849
C        -13.85102        9.08235       -2.35804
C        -13.25526       10.04818       -3.21142
S        -11.93359        9.76061       -4.28693
C        -11.86731       11.39414       -4.84503
C        -12.84318       12.06729       -4.18399
C        -13.63222       11.36325       -3.27754
S        -14.93572       12.30137       -2.43878
C        -14.33795       13.67807       -3.34150
C        -14.98888       14.96019       -3.17309
O        -16.16441       15.14306       -2.88597
O        -14.10017       15.94594       -3.50268
C        -14.68086       17.16933       -3.96273
C        -15.24854       18.01623       -2.84259
C        -13.28709       13.40845       -4.22826
C        -10.90455       11.78207       -5.81521
C        -10.41548       13.02991       -5.83667
C         -9.47681       13.49497       -6.82476
C         -8.58772       14.48025       -6.64928
C         -8.20629       15.31274       -5.50124
C         -7.97658       14.89729       -4.22937
C         -7.52867       15.76563       -3.19955
N         -7.17473       16.48556       -2.35187
C         -8.01128       13.51660       -3.86954
N         -7.96971       12.39830       -3.56842
C         -7.73199       16.60562       -6.06688
C         -7.48675       16.41162       -7.43157
C         -7.95557       15.08281       -7.86143
O         -7.89107       14.61849       -8.97973
C         -6.90976       17.36535       -8.25576
C         -6.55722       18.60150       -7.67162
C         -6.85835       18.82526       -6.31793
C         -7.46825       17.84388       -5.49896
S         -6.37308       20.40700       -5.82336
C         -5.73465       20.75445       -7.34611
C         -5.89940       19.73989       -8.25070
Br        -4.88437       22.37107       -7.75362
H         -3.98323        8.96624       -0.13670
H         -0.60192        7.06765       -3.31616
H         -2.81317       11.49456       -0.85033
H         -4.41840        3.01544       -1.84393
H         -4.75088        0.25481        6.05846
H         -3.42084       -0.39204        5.09757
H         -6.33710       -1.27922        4.74334
H         -5.11126       -2.17561        5.66744
H         -4.94253       -1.94674        3.91030
H         -8.25725        2.55595        3.00466
H         -9.95875        4.26625        1.49388
H         -9.98962        4.01000       -1.58206
H        -11.64703        6.06213       -1.78823
H        -15.14511        3.28990        0.78836
H        -17.13004        8.12043       -2.42245
H        -19.10392        6.81295       -1.21536
H        -13.32216        7.38901       -3.52163
H        -14.35536        9.43572       -1.45933
H        -15.43998       16.94094       -4.71870
H        -13.88223       17.72065       -4.47176
H        -16.07390       17.50817       -2.33771
H        -15.62929       18.96066       -3.24127
H        -14.48974       18.22584       -2.08319
H        -12.88801       14.17798       -4.87742
H        -10.53747       11.03319       -6.51365
H        -10.73194       13.76143       -5.09919
H         -9.59901       13.06192       -7.82007
H         -6.72528       17.15305       -9.30496
H         -7.68329       18.08017       -4.46288
H         -5.55912       19.78388       -9.27850
