84

C         -0.56425       -0.32070       -0.81636
C         -0.04104       -0.60713        0.39916
C          1.30810       -0.28375        0.73362
N          2.40513       -0.01267        0.99717
C         -0.83799       -1.15502        1.45082
N         -1.47737       -1.59623        2.31224
C          0.08706        0.47122       -1.88458
C         -0.91836        1.16812       -2.57898
C         -0.64938        2.01271       -3.64186
C          0.68009        2.11548       -4.06132
C          1.69314        1.36288       -3.42635
C          1.39811        0.54028       -2.32732
Cl         3.32907        1.37176       -3.98630
Cl         1.01389        3.15078       -5.40369
C         -2.25285        0.71256       -2.12560
O         -3.32810        1.13089       -2.49380
C         -1.96424       -0.46022       -1.23019
C         -2.81519       -1.50012       -1.27247
C         -2.45690       -2.84148       -0.93122
C         -1.22028       -3.48774       -1.01741
C         -1.27937       -4.79442       -0.50234
C         -2.57296       -5.17735       -0.23323
S         -3.69792       -3.96842       -0.42899
C         -2.56315       -6.53400        0.16480
C         -1.25914       -6.97988        0.18664
C         -0.36820       -5.89746       -0.20988
C          0.97918       -5.88406       -0.22844
C          1.74944       -7.01939        0.14265
N          2.37939       -7.94299        0.45370
C          1.69037       -4.70227       -0.57359
N          2.21330       -3.70302       -0.85111
C         -1.16753       -8.31764        0.60797
C         -2.42727       -8.86007        0.86658
S         -3.68777       -7.68698        0.57244
C         -2.68718      -10.16249        1.38176
C         -3.78302      -10.88094        1.09060
C         -4.02849      -12.20131        1.65108
C         -4.10541      -12.35886        2.98743
C         -4.37164      -13.63630        3.59032
C         -4.59814      -14.84593        2.78915
C         -4.55652      -14.88511        1.45820
S         -4.23708      -13.48651        0.47095
C         -4.86431      -15.88575        3.70292
C         -4.81731      -15.39467        4.98513
C         -5.07464      -16.36323        5.96638
C         -5.32028      -17.58745        5.35991
S         -5.22142      -17.51471        3.62646
C         -4.49859      -13.99112        4.90297
C         -4.37331      -13.13669        6.05692
C         -3.26532      -12.43018        6.32378
C         -3.15565      -11.55074        7.46601
C         -2.34202      -10.48795        7.56553
C         -2.11681       -9.57728        8.71201
C         -3.00915       -9.24077        9.67836
C         -2.72460       -8.27570       10.68534
N         -2.48346       -7.49038       11.50809
C         -4.33165       -9.77689        9.72814
N         -5.40166      -10.21644        9.76582
C         -0.77784       -8.95311        8.48650
C         -0.36925       -9.23915        7.17399
C         -1.34234      -10.10998        6.50601
O         -1.29007      -10.44005        5.33987
C          0.83609       -8.82071        6.63072
C          1.69353       -8.09044        7.44991
C          1.32570       -7.80383        8.77951
C          0.09027       -8.23698        9.29984
Cl         2.36981       -6.93170        9.84728
Cl         3.20661       -7.59555        6.78156
H         -1.45220        2.53443       -4.15484
H          2.18608       -0.05850       -1.87684
H         -3.80162       -1.35286       -1.71498
H         -0.33306       -3.01405       -1.41460
H         -0.25858       -8.89263        0.73997
H         -1.92043      -10.59354        2.02476
H         -4.54084      -10.51621        0.40098
H         -3.98215      -11.50577        3.64905
H         -4.73237      -15.81696        0.93099
H         -5.08656      -16.20473        7.03680
H         -5.55379      -18.52908        5.83716
H         -5.24481      -13.08552        6.70605
H         -2.41187      -12.51085        5.65221
H         -3.78911      -11.84403        8.29913
H          1.10503       -9.08512        5.61150
H         -0.13548       -8.01814       10.33870
