90

C         -1.94980       -0.92371        2.76776
C         -3.35281       -0.88442        2.67835
C         -4.06481       -0.46100        3.81900
C         -3.40258       -0.08575        4.99717
C         -2.00809       -0.13953        5.04985
C         -1.27846       -0.55646        3.94237
N         -1.35109        0.22952        6.22878
C         -2.00023        0.65820        7.36045
O         -1.36868        0.96483        8.36644
C         -3.48858        0.73219        7.30051
C         -4.13861        0.37424        6.17801
C         -4.20015        1.19127        8.44155
N         -4.83772        1.56165        9.33824
C         -4.05007       -1.27052        1.43068
S         -5.62370       -1.99782        1.48299
C         -5.76889       -2.15774       -0.23015
C         -4.63946       -1.65344       -0.82917
C         -3.70978       -1.19603        0.11415
C         -2.56474       -0.70894       -0.58045
C         -2.65417       -0.81275       -1.98011
C         -1.65457       -0.43397       -2.97172
O         -1.76376       -0.51520       -4.18903
O         -0.53776        0.03174       -2.33600
C          0.52876        0.39831       -3.21189
S         -4.16808       -1.47570       -2.57153
C         -6.91768       -2.75930       -0.88264
C         -6.94822       -3.48023       -2.08115
C         -8.25733       -3.90828       -2.41807
C         -9.16153       -3.52230       -1.46044
S         -8.51919       -2.65927       -0.19384
C        -10.44243       -3.96912       -1.84696
C        -10.35768       -4.62909       -3.05787
C         -8.96090       -4.64496       -3.49116
C         -8.38027       -5.17924       -4.58179
C         -6.96655       -5.07688       -4.77378
N         -5.82089       -5.00953       -4.94599
C         -9.00948       -5.93448       -5.74115
N         -9.53147       -6.56101       -6.70293
C        -11.63352       -5.05473       -3.49447
C        -12.63407       -4.69643       -2.57731
S        -11.96405       -3.86782       -1.19427
C        -14.05670       -4.85549       -2.65092
C        -14.75834       -3.83303       -3.17583
C        -16.19008       -3.87373       -3.32403
C        -16.97973       -5.01858       -2.84335
C        -16.46066       -6.10434       -2.26898
S        -14.74711       -6.33775       -2.02611
C        -18.33032       -4.71681       -3.11500
C        -18.41335       -3.48672       -3.72010
C        -19.73082       -3.10664       -4.03071
C        -20.61299       -4.10501       -3.63953
S        -19.81137       -5.46034       -2.90606
C        -17.06786       -2.96807       -3.85518
C        -16.79712       -1.65588       -4.40217
C        -15.70246       -1.30708       -5.09675
C        -15.43410        0.03218       -5.63562
C        -14.58554        0.14199       -6.74706
C        -14.26979        1.39010       -7.28543
C        -14.79666        2.53672       -6.69993
C        -15.63230        2.45101       -5.58178
C        -15.94000        1.19866       -5.04481
C        -16.16665        3.67961       -4.99472
C        -15.86267        4.88113       -5.51565
C        -14.96200        4.97274       -6.70837
O        -14.65172        6.04737       -7.21101
N        -14.48788        3.79381       -7.22729
C        -16.38060        6.07288       -4.96215
N        -16.84039        7.00916       -4.45925
H         -1.34681       -1.25918        1.92810
H         -5.15158       -0.41309        3.79564
H         -0.19318       -0.60455        3.97515
H         -0.34165        0.18940        6.29063
H         -5.22151        0.42460        6.11423
H         -1.68464       -0.29363       -0.10434
H          1.39352        0.65808       -2.59489
H          0.24991        1.27366       -3.80621
H          0.80760       -0.44007       -3.85791
H         -6.05371       -3.67325       -2.65753
H        -11.85272       -5.56987       -4.42247
H        -14.23554       -2.93884       -3.49301
H        -17.10979       -6.90677       -1.93169
H        -20.04064       -2.18647       -4.50925
H        -21.68976       -4.11827       -3.74550
H        -17.59333       -0.93116       -4.24423
H        -14.93448       -2.04220       -5.31813
H        -14.16668       -0.74914       -7.21120
H        -13.61680        1.44885       -8.15073
H        -16.56697        1.13722       -4.15891
H        -16.81921        3.59264       -4.13137
H        -13.88150        3.87797       -8.03224
