103

C         -1.09655       -1.00450       -4.85499
C         -1.73250       -1.36708       -6.04768
C         -2.96115       -2.04003       -6.03526
C         -3.59289       -2.34678       -4.83051
C         -2.98564       -1.95366       -3.64609
C         -1.71842       -1.29656       -3.64905
C         -1.25568       -1.13636       -2.22687
C         -0.30357       -0.31069       -1.73672
C          0.44702        0.56176       -2.56411
N          1.06301        1.27311       -3.24013
C         -0.03262       -0.21050       -0.34222
N          0.17307       -0.15906        0.80237
C         -2.16596       -2.00735       -1.44021
C         -3.41246       -2.11130       -2.22940
C         -4.68092       -2.01054       -1.76817
C         -4.95958       -1.66269       -0.41098
N         -5.20370       -1.30938        0.66866
C         -5.81059       -2.05266       -2.62781
N         -6.73189       -2.10594       -3.33219
C         -1.73944       -2.87987       -0.50432
C         -2.48541       -4.04070       -0.15373
C         -3.41958       -4.20479        0.86862
C         -3.92599       -5.52675        0.85361
C         -3.31559       -6.25362       -0.10361
S         -2.20220       -5.50333       -1.08518
C         -3.79538       -7.50832       -0.08247
C         -4.76322       -7.59960        0.85004
N         -4.82202       -6.37083        1.44473
C         -5.34822       -8.88606        0.82949
C         -4.73759       -9.66990       -0.15665
S         -3.46141       -8.83787       -1.02294
C         -5.02055      -11.00715       -0.54937
C         -5.52036      -11.87842        0.33599
C         -5.83819      -13.21954       -0.01161
C         -5.71902      -13.89463       -1.23292
C         -6.18158      -15.22595       -1.10090
C         -6.59117      -15.45017        0.16079
S         -6.49653      -14.22040        1.27052
C         -7.02196      -16.71404        0.27252
C         -6.90710      -17.34321       -0.91353
N         -6.38265      -16.40664       -1.76528
C         -6.08641      -16.61327       -3.15561
C         -7.36354      -18.68221       -0.80053
C         -7.79524      -18.92361        0.50753
S         -7.62114      -17.54648        1.57388
C         -8.32837      -20.16551        1.02217
C         -8.01505      -21.45253        0.57424
C         -8.73827      -22.40737        1.33129
C         -9.51357      -21.79266        2.24495
S         -9.50392      -20.13704        2.32190
C        -10.18851      -22.70767        2.95448
C         -9.85973      -23.93722        2.51835
N         -8.96434      -23.74413        1.50425
C        -10.55230      -24.92110        3.26038
C        -11.34874      -24.30821        4.23497
S        -11.28653      -22.55854        4.19344
C        -12.19789      -24.89637        5.21186
C        -11.95185      -26.12354        5.68959
C        -12.82253      -26.76123        6.64765
C        -14.11871      -27.07372        6.45506
C        -15.07642      -27.32461        7.56338
C        -14.86863      -28.09195        8.65625
C        -13.63731      -28.78006        8.87691
N        -12.62897      -29.32343        9.05372
C        -15.87170      -28.32230        9.63081
N        -16.68844      -28.50861       10.43657
C        -16.33652      -26.62672        7.13972
C        -16.22847      -26.27082        5.76289
C        -17.22055      -25.51815        5.14533
C        -18.34667      -25.15367        5.88426
C        -18.46462      -25.51615        7.23021
C        -17.45448      -26.24050        7.86969
C        -14.92569      -26.78150        5.24372
C        -14.62884      -27.10851        3.96212
C        -15.50007      -26.82559        2.87371
N        -16.20098      -26.58399        1.97924
C        -13.46167      -27.85809        3.62642
N        -12.52843      -28.48953        3.34198
H         -0.12394       -0.52920       -4.91667
H         -1.25627       -1.14279       -7.00026
H         -3.42311       -2.33510       -6.97600
H         -4.52806       -2.89746       -4.85389
H         -0.72074       -2.85628       -0.12378
H         -3.71809       -3.42330        1.55391
H         -5.46866       -6.11307        2.17971
H         -6.17181       -9.21299        1.45199
H         -4.80947      -11.29232       -1.57551
H         -5.69098      -11.57416        1.36630
H         -5.33401      -13.46377       -2.14721
H         -6.31449      -17.64427       -3.43596
H         -5.02408      -16.41316       -3.31718
H         -6.69783      -15.92536       -3.74522
H         -7.38876      -19.40607       -1.60390
H         -7.31455      -21.67893       -0.21854
H         -8.52998      -24.48213        0.96564
H        -10.47684      -25.99012        3.10652
H        -13.04271      -24.31625        5.57484
H        -11.06623      -26.68962        5.40294
H        -12.33809      -26.88293        7.61544
H        -17.14878      -25.17964        4.11695
H        -19.13468      -24.56905        5.41258
H        -19.34616      -25.21120        7.79159
H        -17.57088      -26.45077        8.92634
