104

C          1.23298       -2.85382        1.37872
C          0.29140       -2.92105        0.35834
C         -0.06810       -1.62503       -0.07006
C          0.61013       -0.65325        0.63383
S          1.65962       -1.22581        1.79044
C          0.19904        0.61188        0.16648
C         -0.73655        0.44794       -0.83081
C         -0.95643       -0.98337       -1.04456
C         -1.77415       -1.57995       -1.93027
C         -2.57949       -0.81435       -2.82393
N         -3.23091       -0.19191       -3.55273
C         -1.86911       -2.99011       -2.04097
N         -1.93693       -4.14386       -2.13202
C         -1.19665        1.69036       -1.33193
C         -0.58625        2.76206       -0.67890
S          0.55280        2.18511        0.52688
C         -0.80252        4.19019       -0.84898
C         -0.21685        5.17989       -0.09413
C         -0.68598        6.51616       -0.32227
C         -1.52760        6.52644       -1.43768
S         -1.82016        4.90332       -2.01334
C         -2.04106        7.73204       -1.97302
O         -2.68371        7.62961       -3.20451
C         -3.82896        8.43784       -3.43808
C         -1.74732        8.96721       -1.33796
C         -0.98338        8.93963       -0.17048
C         -0.43360        7.74447        0.34076
O          0.26275        7.87740        1.54097
C          1.28336        6.94425        1.85514
S         -0.80408       10.53005        0.50418
C         -1.60215       11.28844       -0.79303
C         -2.03707       10.33317       -1.68364
C         -1.78765       12.72281       -0.94966
C         -2.45138       13.35031       -2.01828
C         -2.43879       14.75628       -1.84799
C         -1.78898       15.08008       -0.71486
S         -1.16157       13.85917        0.22461
C         -1.79520       16.41502       -0.56528
C         -2.45759       16.98122       -1.59212
N         -2.84210       15.94347       -2.39682
C         -2.50060       18.38964       -1.43747
C         -1.85604       18.76219       -0.25039
S         -1.16798       17.39802        0.61984
C         -1.67500       20.04692        0.34221
C         -2.53727       21.05246        0.12957
C         -2.35100       22.32589        0.74203
C         -1.79462       22.67125        1.95958
C         -1.77008       24.09231        2.22395
C         -2.27487       24.80045        1.13806
S         -2.88251       23.73092       -0.07516
C         -2.26241       26.20620        1.09783
O         -2.67975       26.79195       -0.09511
C         -3.42519       27.99935        0.00711
C         -1.73874       26.93842        2.18981
C         -1.33876       26.22598        3.33270
C         -1.31466       24.81062        3.35821
O         -0.87168       24.01082        4.41666
C         -0.34754       24.61941        5.59184
S         -0.95134       27.33495        4.59033
C         -1.06231       28.69321        3.61998
C         -1.47045       28.34929        2.35703
C         -0.79503       30.00072        4.13769
C         -1.43327       31.17556        3.76006
C         -0.89929       32.27218        4.45613
C          0.08647       31.88707        5.34072
S          0.41203       30.26585        5.36033
C          0.59011       33.02686        5.98886
C         -0.07378       34.14023        5.50710
C         -1.06029       33.71871        4.51803
C         -1.90575       34.47132        3.79807
C         -1.94506       35.88540        3.94023
N         -1.95795       37.03973        4.05405
C         -2.80232       33.90240        2.85523
N         -3.54779       33.40346        2.09453
C          0.41364       35.31900        6.09965
C          1.42611       35.02838        7.01102
S          1.76049       33.33527        7.12970
H          1.69363       -3.67683        1.90983
H         -0.08653       -3.86323       -0.01923
H         -1.93785        1.83027       -2.10820
H          0.51934        4.91388        0.64158
H         -4.25846        8.13639       -4.39847
H         -3.57305        9.48237       -3.58774
H         -4.58855        8.32229       -2.66021
H          1.83172        7.30863        2.72843
H          1.99626        6.82735        1.03169
H          0.85084        5.99583        2.17819
H         -2.54711       10.64319       -2.57599
H         -2.91150       12.84263       -2.85562
H         -3.35935       16.04159       -3.26050
H         -2.96712       19.08214       -2.12605
H         -0.81557       20.18320        0.99477
H         -3.39548       20.92202       -0.52537
H         -1.40928       21.93853        2.66016
H         -4.03136       28.10590       -0.89714
H         -2.74776       28.85511        0.00462
H         -4.09422       28.01865        0.87384
H         -0.07011       23.84306        6.30896
H         -1.11089       25.22036        6.09649
H          0.56527       25.18564        5.37140
H         -1.58054       29.09560        1.58598
H         -2.22609       31.19772        3.02316
H          0.08594       36.33068        5.90109
H          1.99328       35.72270        7.61503
