129

C         -3.40808        0.14498       -2.03643
C         -3.03656        0.59601       -0.81795
C         -3.94229        0.62486        0.28073
N         -4.68904        0.64795        1.16597
C         -1.67187        0.88768       -0.51716
N         -0.55425        1.05875       -0.24922
C         -4.64636       -0.59424       -2.35226
C         -4.30576       -1.61133       -3.26230
C         -5.22417       -2.52252       -3.74648
C         -6.56910       -2.32984       -3.40577
C         -6.94948       -1.22412       -2.58478
C         -5.97189       -0.38272       -2.02166
C         -8.31184       -0.96478       -2.38418
C         -9.28519       -1.78866       -2.95115
C         -8.91074       -2.90336       -3.69640
C         -7.56081       -3.17530       -3.92007
C         -2.92781       -1.39255       -3.76896
O         -2.31938       -2.07210       -4.56594
C         -2.53680       -0.06528       -3.18703
C         -1.89202        0.82888       -3.95400
C         -1.96592        2.28365       -3.74937
C         -3.04524        3.01351       -4.28299
C         -3.09132        4.39023       -4.07493
C         -2.09142        5.04155       -3.32076
C         -1.02876        4.32608       -2.79482
C         -0.96162        2.94773       -3.02635
C         -2.39386        6.45528       -3.23764
C         -3.56885        6.72465       -3.96953
C         -4.12057        5.42096       -4.56847
C         -4.16721        5.49886       -6.12130
C         -2.81897        5.71142       -6.81411
C         -5.54184        5.13467       -4.00466
C         -5.62259        4.94185       -2.48756
C         -4.09441        8.01211       -4.04318
C         -3.44599        9.03800       -3.34572
C         -2.27814        8.76376       -2.60885
C         -1.74113        7.47191       -2.56129
C         -3.97507       10.40331       -3.37614
C         -4.85922       10.85299       -2.47129
C         -5.33585       12.18488       -2.55751
C         -4.81476       13.34868       -1.98328
C         -5.58482       14.48115       -2.32637
C         -6.64912       14.13023       -3.12411
S         -6.77586       12.51397       -3.47544
C         -7.38207       15.28818       -3.43838
C         -6.79049       16.37665       -2.84324
C         -5.61123       15.92909       -2.09971
C         -4.75187       16.67595       -1.37840
C         -4.90916       18.08330       -1.25096
N         -5.04237       19.23153       -1.14867
C         -3.64422       16.09257       -0.70732
N         -2.73908       15.61217       -0.15902
C         -7.49742       17.56559       -3.13089
C         -8.59420       17.31838       -3.96346
S         -8.73874       15.61191       -4.32223
C         -9.54843       18.23482       -4.48302
C        -10.16415       18.04760       -5.67404
C        -11.08285       19.15594       -5.88650
C        -10.94373       20.01644       -4.73089
C        -10.03772       19.48490       -3.90319
F        -11.62523       21.14861       -4.51819
C        -11.88646       19.31094       -6.94509
C        -12.80977       20.41114       -7.17548
C        -13.45633       20.17384       -8.33686
C        -12.93844       18.93054       -8.90988
C        -12.02156       18.42527       -8.08267
F        -11.34117       17.28945       -8.28070
C        -14.43650       21.06588       -8.89751
C        -15.44332       20.62794       -9.66574
C        -16.43748       21.50947      -10.22752
C        -17.69068       21.16583      -10.56337
C        -18.73607       21.96901      -11.23910
C        -18.87058       23.31638      -11.22612
C        -19.97147       23.98624      -11.83130
N        -20.86286       24.53628      -12.33082
C        -17.95794       24.18321      -10.55076
N        -17.21852       24.88880      -10.00743
C        -19.72774       20.98826      -11.77499
C        -19.46111       19.73126      -11.21874
C        -18.24510       19.77585      -10.40071
O        -17.81246       18.84645       -9.75199
C        -20.21990       18.59813      -11.46622
C        -21.30267       18.71165      -12.34138
C        -21.57674       19.96183      -12.96316
C        -20.77786       21.09125      -12.67889
C        -22.65290       20.05106      -13.85783
C        -23.45365       18.93956      -14.12651
C        -23.18871       17.72097      -13.50825
C        -22.11665       17.60530      -12.62355
H         -4.91143       -3.30094       -4.43640
H         -6.26653        0.45588       -1.39628
H         -8.63147       -0.09943       -1.80658
H        -10.33840       -1.55821       -2.81087
H         -9.67169       -3.55302       -4.12165
H         -7.29273       -4.04168       -4.52156
H         -1.44191        0.51963       -4.89635
H         -3.82414        2.52038       -4.85841
H         -0.25083        4.81699       -2.21941
H         -0.11359        2.39286       -2.62874
H         -4.83457        6.31484       -6.43019
H         -4.60607        4.57662       -6.52395
H         -2.33512        6.63734       -6.48944
H         -2.96083        5.77735       -7.89820
H         -2.13425        4.87865       -6.62737
H         -5.95809        4.23605       -4.47792
H         -6.21387        5.96047       -4.27484
H         -5.19813        3.97794       -2.18933
H         -6.66819        4.95356       -2.16295
H         -5.10233        5.73168       -1.93799
H         -4.99198        8.21482       -4.62041
H         -1.77748        9.56272       -2.06558
H         -0.83907        7.27883       -1.99135
H         -3.60608       11.03373       -4.17956
H         -5.23553       10.21920       -1.67137
H         -3.92472       13.33522       -1.36642
H         -7.24614       18.56280       -2.78934
H        -10.01931       17.22945       -6.36226
H         -9.73166       19.89104       -2.95380
H        -12.95894       21.25112       -6.51578
H        -13.25271       18.49903       -9.84548
H        -14.35727       22.11719       -8.62867
H        -15.53492       19.56357       -9.87502
H        -16.06044       22.51015      -10.41192
H        -19.95878       17.65419      -10.99524
H        -21.00202       22.02116      -13.19087
H        -22.88423       20.99268      -14.35239
H        -24.28831       19.02764      -14.81765
H        -23.81710       16.85821      -13.71485
H        -21.92487       16.64246      -12.15388
