99

C        -15.67734        3.81701       -3.77543
C        -14.41999        3.29836       -3.43950
C        -13.28218        4.11999       -3.21065
C        -13.27655        5.54330       -3.29194
C        -14.55510        6.07263       -3.62780
C        -15.72128        5.21825       -3.86449
N        -16.76794        5.99539       -4.16579
O        -16.29850        7.29265       -4.11933
N        -14.96142        7.34293       -3.78534
C        -12.07520        6.37491       -3.06225
C        -11.88078        7.60754       -3.71820
C        -10.71525        8.33922       -3.49915
C         -9.72529        7.88846       -2.60711
C         -9.88522        6.68701       -1.94685
C        -11.04976        5.94044       -2.18203
C         -8.64502        8.84999       -2.56358
C         -8.93530        9.91501       -3.44087
C        -10.28731        9.67370       -4.12462
C        -10.09830        9.56159       -5.66500
C         -9.17656        8.43766       -6.14740
C        -11.30555       10.80226       -3.79504
C        -11.64292       10.98390       -2.31322
C         -8.05281       10.97240       -3.61906
C         -6.86196       10.99176       -2.88500
C         -6.57700        9.91978       -2.00499
C         -7.47054        8.84901       -1.83602
C         -5.87359       12.07591       -3.05681
C         -6.13660       13.36428       -3.36163
C         -5.09461       14.35546       -3.43955
C         -5.10056       15.75218       -3.17940
C         -3.76764       16.25812       -2.93754
C         -2.94904       15.13794       -2.89888
S         -3.46237       13.86268       -3.82323
C         -2.17107       15.16535       -1.72480
C         -2.42179       16.33937       -1.06673
C         -3.16145       17.27362       -2.01360
C         -2.56533       18.48444       -2.40179
C         -1.14087       18.32207       -1.89687
N          0.04083       18.18737       -1.47799
C         -2.89863       19.19869       -3.57717
N         -3.18512       19.78924       -4.53090
C         -1.74860       16.37359        0.18878
C         -0.90818       15.25358        0.36740
S         -1.22402       14.08075       -0.91124
C          0.09907       14.97659        1.37797
C          1.16379       14.21715        1.05591
C          2.22527       13.90963        1.98794
C          2.26809       14.47170        3.33290
C          1.31555       15.24901        3.84461
S         -0.12717       15.70413        2.97261
C          3.46791       14.01703        3.92124
C          4.14205       13.21689        3.02923
C          5.35738       12.71780        3.53529
C          5.55602       13.18362        4.82480
S          4.26032       14.20180        5.37842
C          3.35261       13.15070        1.82660
C          3.73249       12.41431        0.64733
C          2.99531       11.44322        0.10147
C          3.40688       10.66053       -1.05994
C          4.23052       11.13420       -2.10704
C          4.63421       10.33529       -3.20697
C          4.25053        8.99052       -3.35926
C          3.42243        8.49333       -2.33652
C          2.99803        9.30907       -1.19975
N          2.20966        8.55118       -0.42472
O          2.14850        7.31073       -1.03320
N          2.88864        7.27582       -2.20213
H        -16.54445        3.19473       -3.95440
H        -14.30682        2.21676       -3.35548
H        -12.35257        3.59957       -2.97205
H        -12.62125        8.00591       -4.40549
H         -9.12879        6.31709       -1.26302
H        -11.14846        4.99805       -1.64632
H         -9.69864       10.50750       -6.05463
H        -11.07509        9.42172       -6.14572
H         -8.14687        8.58035       -5.80474
H         -9.15647        8.41849       -7.24198
H         -9.51997        7.45495       -5.81152
H        -12.24833       10.61122       -4.32540
H        -10.93005       11.76130       -4.17604
H        -12.16903       10.11233       -1.91055
H        -12.30409       11.84732       -2.18290
H        -10.74896       11.15893       -1.70764
H         -8.27870       11.75501       -4.33612
H         -5.64864        9.90572       -1.43664
H         -7.23574        8.04217       -1.14914
H         -4.85228       11.73166       -2.88212
H         -7.16170       13.70493       -3.46265
H         -6.00985       16.28283       -2.92143
H         -1.73150       17.22251        0.86252
H          1.30826       13.82096        0.05501
H          1.40917       15.63183        4.85967
H          6.05044       12.06466        3.02067
H          6.38797       12.98581        5.48652
H          4.70627       12.67357        0.24256
H          2.03818       11.15794        0.54800
H          4.56533       12.17159       -2.09183
H          5.27042       10.78658       -3.96803
H          4.57366        8.37967       -4.19249
