88

C         -0.93221        6.16276        2.31962
N         -0.43958        7.31500        1.86816
O         -1.49664        7.93712        1.23904
C         -2.61788        7.15829        1.31893
C         -3.80037        7.74708        0.75344
O         -4.93474        7.27947        0.75061
C         -2.30067        5.99760        2.00292
C         -3.16200        4.82516        2.33691
S         -4.54647        4.33855        1.45453
C         -4.88928        2.98823        2.47164
C         -3.94097        2.90432        3.45934
C         -2.99214        3.92859        3.34348
C         -2.09337        3.82651        4.43867
C         -2.35754        2.74356        5.29676
C         -1.63322        2.40933        6.51206
O         -2.06654        1.80598        7.48446
O         -0.38430        2.95467        6.43113
C          0.31830        3.02230        7.66851
S         -3.73708        1.76465        4.85738
C         -6.02349        2.11791        2.27222
C         -6.12949        0.75355        2.55817
C         -7.40797        0.25477        2.22103
C         -8.20998        1.24025        1.70530
S         -7.50748        2.73577        1.59425
C         -9.46183        0.68499        1.37657
C         -9.45179       -0.65675        1.67754
C         -8.14377       -1.01421        2.24082
C         -7.72729       -2.21519        2.67144
C         -6.41833       -2.41170        3.18941
N         -5.34334       -2.56762        3.60694
C         -8.56995       -3.36219        2.62321
N         -9.26006       -4.29346        2.57839
C        -10.67418       -1.27432        1.34031
C        -11.56159       -0.35277        0.77674
S        -10.87580        1.24668        0.72086
C        -12.86881       -0.59206        0.21382
C        -13.91622        0.29215        0.11505
C        -15.00792       -0.16241       -0.71801
C        -16.21565        0.47541       -1.10453
C        -16.66611        1.72747       -0.41607
C        -17.31861        2.85091       -0.91125
C        -17.69492        3.79684        0.08693
C        -17.25710        3.43434        1.33789
S        -16.51575        1.89351        1.30254
C        -17.38622        4.16102        2.63548
Cl       -18.59372        5.20332       -0.29737
C        -16.97132       -0.06224       -2.17207
C        -16.63176       -1.28011       -2.78030
C        -15.56748       -2.03678       -2.21356
C        -14.73131       -1.43907       -1.23570
S        -13.30707       -2.07749       -0.46978
C        -15.31984       -3.44348       -2.65935
C        -14.13393       -4.15199       -2.80970
C        -14.31452       -5.53007       -3.12615
C        -15.63642       -5.85069       -3.32243
S        -16.64530       -4.52001       -2.96146
C        -16.23262       -7.15935       -3.72374
Cl       -12.99544       -6.61654       -3.23273
C        -17.46953       -1.50682       -3.94977
C        -18.41220       -0.52849       -4.17003
S        -18.39575        0.57514       -2.90356
C        -19.32289       -0.47208       -5.35403
C        -20.19808        0.52358       -5.75397
O        -20.76765        0.14859       -6.94033
N        -20.29652       -1.08861       -7.32592
C        -19.42651       -1.44045       -6.37922
C        -20.61208        1.81274       -5.27129
O        -20.55451        2.23632       -4.12186
H         -0.25824        5.48925        2.82756
H         -3.63616        8.74000        0.29915
H         -1.29769        4.52719        4.65931
H          1.28862        3.48611        7.46995
H          0.48274        2.03001        8.09749
H         -0.23228        3.66523        8.36154
H         -5.31619        0.17341        2.97393
H        -10.92088       -2.32004        1.46292
H        -13.87083        1.27948        0.55766
H        -17.57315        2.99562       -1.95266
H        -17.94124        5.09832        2.52610
H        -16.39924        4.41191        3.03962
H        -17.91810        3.54840        3.37030
H        -13.15121       -3.72798       -2.65425
H        -15.55204       -7.72169       -4.37284
H        -17.16800       -7.02871       -4.27846
H        -16.43724       -7.76851       -2.83778
H        -17.33047       -2.34349       -4.62142
H        -18.90822       -2.38223       -6.48632
H        -21.03468        2.46895       -6.05207
