82

C          3.54276       -7.53741        3.87624
C          3.53913       -8.76661        4.54679
C          2.59389       -9.75271        4.23844
C          1.65824       -9.54708        3.22537
C          1.69524       -8.35333        2.51824
C          2.61576       -7.32233        2.86226
C          2.28957       -6.10320        2.03862
C          3.09973       -5.05314        1.77222
C          4.42634       -4.95639        2.28512
N          5.50849       -4.88341        2.69318
C          2.70951       -4.01663        0.87651
N          2.37915       -3.17159        0.15465
C          0.95147       -6.39208        1.43554
C          0.86139       -7.86875        1.38435
C          0.40831       -8.62180        0.35592
C          0.01402       -8.02366       -0.87903
N         -0.26262       -7.52269       -1.88369
C          0.38816      -10.04845        0.39341
N          0.34696      -11.19987        0.44441
C         -0.07716       -5.51907        1.31766
C         -1.50006       -5.82921        1.08213
N         -2.05611       -6.96817        1.57473
N         -3.43812       -7.33910        1.38354
C         -4.34274       -6.57909        0.71654
C         -3.86376       -5.34882        0.22249
C         -2.39623       -4.96984        0.38708
N         -2.10725       -3.79972       -0.21129
S         -3.50851       -3.23675       -0.89831
N         -4.57583       -4.41571       -0.43604
C         -5.69376       -7.03642        0.52171
C         -6.96154       -6.27183        0.62925
N         -8.06788       -6.96491        0.61620
C         -7.62123       -8.24191        0.49448
C         -6.18594       -8.26454        0.35091
C         -5.73590       -9.68023        0.19268
S         -4.32435      -10.25012       -0.46985
C         -6.96981      -10.42336        0.59720
C         -8.07286       -9.48358        0.64197
N         -9.22479      -10.11397        0.98309
C         -8.83067      -11.33968        1.19281
C         -7.38134      -11.62450        1.00606
C         -6.69029      -12.84930        1.32499
N         -5.45315      -12.83884        1.88907
N         -4.73762      -14.03040        2.27740
C         -5.24875      -15.28012        2.15862
C         -6.52454      -15.37326        1.55146
C         -7.25774      -14.12789        1.11291
N         -8.43107      -14.40615        0.51270
S         -8.63629      -16.04966        0.58168
N         -7.21949      -16.49972        1.30625
C         -4.54417      -16.47510        2.62503
C         -3.65621      -16.62382        3.62817
C         -2.83215      -17.85478        3.82625
C         -3.24397      -19.14430        3.74497
C         -4.58929      -19.49385        3.42897
N         -5.68329      -19.77584        3.16461
C         -2.39530      -20.24846        4.04060
N         -1.71027      -21.15529        4.27450
C         -1.49716      -17.35784        4.29711
C         -1.62037      -15.98409        4.65290
C         -0.50205      -15.25563        5.04286
C          0.73163      -15.90415        5.12961
C          0.85073      -17.25789        4.80146
C         -0.25847      -17.98697        4.36569
C         -3.04987      -15.57392        4.48275
C         -3.69272      -14.60885        5.18592
C         -3.01804      -13.71370        6.06233
N         -2.47225      -12.98307        6.78001
C         -5.11528      -14.50439        5.19170
N         -6.27510      -14.44377        5.19362
H          4.26114       -6.78826        4.19197
H          4.26570       -8.95351        5.33620
H          2.58319      -10.68558        4.79897
H          0.91392      -10.31272        3.03161
H          0.08501       -4.45816        1.50251
H         -6.93361       -5.17684        0.73565
H         -9.51000      -12.14402        1.50997
H         -4.79498      -17.33351        2.00394
H         -0.54241      -14.19511        5.26733
H          1.61268      -15.34827        5.44467
H          1.82257      -17.74411        4.86830
H         -0.10213      -19.02051        4.07768
