102

C         -0.57406       -4.03978       -7.54830
C         -0.95430       -4.86031       -8.60768
F         -0.47021       -4.61478       -9.83271
C         -1.81478       -5.92895       -8.40079
F         -2.16257       -6.72406       -9.42202
C         -2.31461       -6.19529       -7.13225
C         -1.93924       -5.38912       -6.04920
C         -1.05175       -4.29030       -6.25203
C         -0.64991       -3.49018       -5.15722
C         -1.11162       -3.78075       -3.87719
C         -1.96246       -4.88147       -3.71865
C         -2.40356       -5.67550       -4.76530
C         -2.22010       -5.14701       -2.29963
O         -2.94476       -6.02731       -1.88528
C         -1.35987       -4.17442       -1.54025
C         -0.84578       -3.19506       -2.52690
C         -0.37421       -1.94894       -2.27290
C         -0.26085       -1.41651       -0.95638
N         -0.14319       -0.97045        0.11270
C         -0.00243       -1.04473       -3.30786
N          0.30606       -0.31419       -4.15469
C         -1.05416       -4.33444       -0.24213
C         -1.59855       -5.38037        0.61449
C         -1.00488       -6.63992        0.80102
C         -1.57910       -7.63891        1.62814
C         -2.77099       -7.45997        2.37103
C         -3.42119       -6.22059        2.14250
C         -2.83177       -5.18482        1.27578
N         -3.66893       -4.13141        1.24372
N         -4.71064       -4.57896        1.95586
N         -4.60636       -5.75721        2.58684
C         -5.96842       -3.87295        1.93133
C         -3.42289       -8.48668        3.18639
C         -2.83165       -9.45499        3.90162
C         -1.42485       -9.68587        4.13197
C         -1.14729      -10.94548        4.49946
C         -2.33035      -11.78223        4.59196
S         -3.77046      -10.75631        4.59871
C         -2.36702      -13.12440        4.50515
C         -1.23795      -14.00888        4.27023
C         -1.59471      -15.20738        3.77998
C         -3.02499      -15.34558        3.61438
S         -3.86205      -14.04304        4.42370
C         -3.63490      -16.29296        2.88577
C         -5.07743      -16.30350        2.65997
C         -5.72710      -15.53894        1.66698
C         -7.14233      -15.45639        1.55152
C         -8.03087      -16.10919        2.43405
C         -7.39880      -16.93870        3.39678
C         -5.93269      -17.02984        3.51555
N         -5.64600      -17.87137        4.52761
N         -6.85722      -18.24984        4.94177
N         -7.93506      -17.74957        4.32947
C         -7.00972      -19.24191        5.97724
C         -9.49098      -16.01568        2.31156
C        -10.42628      -16.05068        3.27523
C        -11.83939      -16.36299        2.87492
O        -12.35614      -16.23355        1.78478
C        -12.46627      -16.94551        4.07806
C        -13.74660      -17.46641        4.17415
C        -14.15043      -18.00119        5.40585
C        -13.22368      -18.06068        6.49030
C        -13.62958      -18.59849        7.71932
C        -14.93553      -19.04232        7.88735
C        -15.84205      -18.97533        6.83865
C        -15.45803      -18.46994        5.59935
F        -17.10460      -19.38715        7.01521
F        -15.31497      -19.52138        9.07969
C        -11.92343      -17.55055        6.34059
C        -11.56401      -16.93359        5.15230
C        -10.37421      -16.14480        4.73988
C         -9.58455      -15.43421        5.58179
C         -8.74804      -14.37874        5.11780
N         -8.11336      -13.47217        4.76890
C         -9.59017      -15.62615        6.99248
N         -9.58721      -15.82388        8.13699
H          0.10490       -3.21626       -7.75245
H         -2.98179       -7.04336       -7.00270
H          0.04977       -2.68063       -5.34103
H         -3.05979       -6.51858       -4.56437
H         -0.36444       -3.68551        0.28536
H         -0.08401       -6.88110        0.27136
H         -1.07718       -8.60598        1.65378
H         -5.90015       -3.03721        1.22953
H         -6.18268       -3.50739        2.93707
H         -6.74275       -4.56817        1.59611
H         -4.51243       -8.46840        3.12991
H         -0.67369       -8.92202        3.99572
H         -0.14556      -11.31073        4.67080
H         -0.20928      -13.70702        4.40626
H         -0.89471      -15.97583        3.48269
H         -3.07100      -17.07534        2.38943
H         -5.12144      -14.95681        0.97078
H         -7.54862      -14.83196        0.75428
H         -6.87608      -20.22398        5.51852
H         -8.01261      -19.15829        6.40558
H         -6.26053      -19.06659        6.75195
H         -9.82767      -15.99303        1.27267
H        -14.41103      -17.43400        3.31468
H        -12.94957      -18.65329        8.56607
H        -16.19640      -18.42908        4.80324
H        -11.23012      -17.62982        7.17204
