95

C          0.41338        0.59843        3.41605
C          1.77053        0.36076        3.61160
F          2.52594        1.30917        4.18193
C          2.33740       -0.84573        3.22721
F          3.64125       -1.07435        3.43402
C          1.56157       -1.83181        2.62655
C          0.19432       -1.61328        2.40595
C         -0.39621       -0.38080        2.81965
C         -1.77808       -0.16348        2.64268
C         -2.55864       -1.14533        2.04340
C         -1.95006       -2.34166        1.64777
C         -0.59822       -2.59810        1.80520
C         -2.96020       -3.29688        1.17001
O         -2.73624       -4.34142        0.59678
C         -4.28957       -2.69876        1.54515
C         -4.02340       -1.26000        1.79324
C         -4.87299       -0.21833        1.62727
C         -4.43548        1.13743        1.62787
N         -4.05953        2.23994        1.61083
C         -6.25822       -0.41644        1.35475
N         -7.38362       -0.59113        1.16776
C         -5.38215       -3.45768        1.75385
C         -5.40112       -4.91533        1.60355
N         -5.70842       -5.49799        0.42420
N         -5.64503       -6.93322        0.20084
C         -5.21625       -7.84924        1.10995
C         -4.95023       -7.30116        2.40568
C         -5.06795       -5.79990        2.65817
N         -4.81731       -5.46112        3.93888
S         -4.45582       -6.86059        4.74569
N         -4.57139       -7.96168        3.51890
C         -5.09919       -9.28186        0.76883
C         -5.26790      -10.24958        1.69872
C         -5.16518      -11.54455        1.07882
C         -5.26699      -12.82818        1.88648
N         -5.35144      -13.89306        2.55651
C         -4.94600      -11.46669       -0.21758
C         -4.94246      -10.05120       -0.51325
C         -4.80184       -9.64354       -1.77540
C         -4.90774      -10.44460       -3.02832
C         -4.75997       -9.56140       -4.03245
C         -4.54064       -8.26641       -3.45171
C         -4.51246       -8.28764       -2.12913
C         -4.30094       -6.99755       -4.25354
N         -4.10210       -5.94492       -4.91873
C         -5.21579      -11.82932       -3.30860
C         -6.32647      -12.44082       -2.85970
C         -6.66233      -13.83161       -3.10146
C         -6.79624      -14.24230       -4.37127
C         -7.16996      -15.58215       -4.70596
C         -7.46047      -16.59905       -3.69008
C         -7.39767      -16.37894       -2.37678
S         -6.94388      -14.83622       -1.68760
C         -7.78577      -17.77741       -4.39441
C         -7.70839      -17.54121       -5.74733
C         -7.99596      -18.66839       -6.53074
C         -8.28023      -19.74920       -5.70741
S         -8.19512      -19.35159       -4.01733
C         -7.32323      -16.16348       -5.92810
C         -7.13484      -15.51374       -7.19972
C         -6.22864      -15.90500       -8.10693
C         -6.06779      -15.25397       -9.38122
C         -5.18204      -15.62089      -10.31429
C         -5.10992      -14.93660      -11.62918
O         -5.75520      -13.98424      -12.01270
C         -4.09132      -15.66779      -12.38887
C         -3.68984      -15.45176      -13.69356
C         -2.71433      -16.30509      -14.21679
C         -2.16311      -17.33956      -13.43433
C         -2.57820      -17.54055      -12.11453
C         -3.54862      -16.69138      -11.61563
C         -4.17041      -16.71452      -10.28784
O         -3.88695      -17.47776       -9.38921
H          0.00550        1.55463        3.73458
H          2.03799       -2.76636        2.34249
H         -2.21222        0.76167        3.01303
H         -0.18974       -3.55699        1.49672
H         -6.31364       -3.04766        2.12924
H         -5.46666      -10.13727        2.75436
H         -4.75923      -12.31216       -0.85220
H         -4.81296       -9.75825       -5.09244
H         -4.25579       -7.44984       -1.50872
H         -4.49546      -12.36508       -3.92743
H         -7.04775      -11.88920       -2.26128
H         -6.63996      -13.53612       -5.17755
H         -7.62967      -17.17551       -1.67613
H         -7.98484      -18.71599       -7.61199
H         -8.52833      -20.75969       -6.00206
H         -7.79174      -14.67233       -7.40562
H         -5.57650      -16.75209       -7.90645
H         -6.73230      -14.41320       -9.58322
H         -4.12495      -14.65533      -14.28950
H         -2.37817      -16.17285      -15.24393
H         -1.40743      -17.99334      -13.86690
H         -2.16315      -18.33840      -11.50594
