96

C          1.50618        0.38587        3.65651
C          0.69675        1.28074        4.30384
S          1.33883        2.88295        4.18089
C          2.69327        2.35820        3.26409
C          3.69020        3.31990        2.71938
C          2.65723        0.99619        3.11816
C          3.54154        0.07119        2.46904
O          4.63529        0.32308        2.00367
C          2.76840       -1.25418        2.54512
C          1.49741       -1.02698        3.34526
C          0.52271       -1.90764        3.67990
C         -0.62660       -1.52568        4.43624
N         -1.56433       -1.21962        5.04788
C          0.54128       -3.27119        3.28745
N          0.54295       -4.38393        2.95295
C          3.22615       -2.35938        1.92016
C          4.40761       -2.34890        1.12364
S          5.94794       -2.81587        1.76763
C          6.80792       -2.35119        0.34142
C          5.93135       -1.90810       -0.61487
C          4.61325       -1.97876       -0.16725
C          3.74749       -1.53854       -1.20266
C          4.42810       -1.10460       -2.35670
C          3.78869       -0.54721       -3.54755
O          2.57342       -0.46773       -3.70752
O          4.70924       -0.08630       -4.43780
C          4.16665        0.52957       -5.60542
S          6.18556       -1.26733       -2.28001
C          8.22151       -2.44355        0.19498
C          8.98275       -1.40451        0.59588
C         10.41786       -1.41936        0.45102
C         11.13411       -2.52944       -0.19323
C         10.54800       -3.63846       -0.64124
S          8.83370       -3.92795       -0.52193
C         12.50054       -2.17540       -0.20626
C         12.66170       -0.94683        0.38641
C         13.99767       -0.51658        0.43371
C         14.81653       -1.46696       -0.16045
S         13.93379       -2.84837       -0.73871
C         11.35484       -0.48707        0.79187
C         11.09602        0.76071        1.46009
C         11.46246        1.95210        0.96356
C         11.16118        3.16308        1.64642
C         10.15144        3.43698        2.57123
C         10.17117        4.78556        2.96221
C         11.18382        5.48858        2.34857
S         12.11671        4.58707        1.31334
C         11.07832        6.84749        2.71676
C          9.96587        6.99708        3.51162
C          9.39065        5.68782        3.79538
C          8.44900        5.38167        4.70907
C          8.08393        4.03663        4.98685
N          7.79761        2.93648        5.22029
C          7.83956        6.39860        5.49284
N          7.37872        7.27249        6.09996
C          9.68087        8.35105        3.75826
C         10.73923        9.17033        3.36371
S         11.91125        8.25518        2.43424
C         10.94240       10.57145        3.52145
C         10.42456       11.34043        4.49435
C         10.41310       12.83261        4.18112
O         11.09928       13.44956        3.38942
C          9.31305       13.30349        4.98583
C          8.67762       14.51102        5.11690
S          7.37181       14.36976        6.23422
C          7.69693       12.70222        6.54494
C          8.77661       12.28766        5.81738
C          9.56923       11.08895        5.69209
C          9.67286       10.10368        6.61501
C          8.77352       10.00873        7.71716
N          8.03416        9.93991        8.60913
C         10.73464        9.15247        6.60630
N         11.59766        8.37840        6.62237
C          8.97462       15.81711        4.46724
H         -0.23668        1.14578        4.83230
H          3.43482        4.35966        2.94409
H          3.74284        3.21952        1.62904
H          4.68441        3.11433        3.12818
H          2.70280       -3.30672        1.93657
H          2.66559       -1.50361       -1.13313
H          5.00084        0.91789       -6.19710
H          3.51699        1.36852       -5.33697
H          3.62638       -0.20637       -6.20802
H          8.52726       -0.51169        1.01622
H         11.13999       -4.42451       -1.09869
H         14.35974        0.41002        0.86092
H         15.89045       -1.43065       -0.28639
H         10.57663        0.67245        2.41143
H         11.98590        2.01059        0.01097
H          9.42981        2.69378        2.88782
H          8.78852        8.72590        4.24033
H         11.50455       11.05933        2.72169
H          7.07201       12.16866        7.24872
H          9.47739       15.67463        3.50582
H          9.63143       16.41282        5.10983
H          8.06173       16.39148        4.27965
