108

C         -2.76636       -3.31512       10.08772
C         -2.18375       -4.18992       11.00149
F         -2.15310       -3.85423       12.29805
C         -1.64477       -5.39865       10.58434
F         -1.11054       -6.24530       11.47395
C         -1.65633       -5.74311        9.23766
C         -2.22177       -4.87353        8.29774
C         -2.81286       -3.64769        8.71796
C         -3.45448       -2.79984        7.78355
C         -3.49846       -3.16311        6.44084
C         -2.86841       -4.35864        6.06278
C         -2.23397       -5.21613        6.94260
C         -3.07096       -4.62254        4.63532
O         -2.47059       -5.44826        3.98148
C         -4.12313       -3.64527        4.19998
C         -4.16094       -2.58300        5.23261
C         -4.59821       -1.31039        5.07192
C         -5.11293       -0.83560        3.83019
N         -5.54055       -0.46334        2.81792
C         -4.53047       -0.33698        6.10923
N         -4.47425        0.44686        6.95931
C         -4.99551       -3.90363        3.21027
C         -4.96970       -5.11986        2.47318
C         -4.30148       -5.41859        1.28660
C         -4.51000       -6.76175        0.91184
C         -5.33057       -7.41483        1.80457
S         -5.88254       -6.48334        3.06162
C         -5.46806       -8.75652        1.39936
C         -4.73616       -8.95012        0.24966
C         -4.09668       -7.69509       -0.13649
C         -3.31402       -7.45505       -1.20580
C         -3.00460       -8.47031       -2.15230
N         -2.75334       -9.29913       -2.92644
C         -2.76078       -6.16942       -1.45075
N         -2.31144       -5.11919       -1.65430
C         -4.80308      -10.28585       -0.18704
C         -5.58497      -11.05375        0.67718
S         -6.24072      -10.10668        1.97436
C         -5.87185      -12.46121        0.57212
C         -6.13117      -13.37124        1.60159
C         -6.37398      -14.66027        1.08741
C         -6.29278      -14.65974       -0.28371
S         -5.93078      -13.21087       -0.99015
C         -6.55001      -15.95246       -0.75243
C         -6.78828      -16.78315        0.30867
C         -6.69856      -16.01413        1.54438
C         -6.88268      -16.45880        2.79834
C         -7.20900      -17.81615        3.07271
N         -7.47262      -18.92847        3.27538
C         -6.75339      -15.59698        3.91031
N         -6.63740      -14.88044        4.82489
C         -7.03865      -18.10026       -0.11685
C         -6.98974      -18.22297       -1.51435
S         -6.63539      -16.65049       -2.23393
C         -7.19109      -19.38026       -2.35754
C         -7.48512      -20.57234       -1.78470
C         -7.79016      -21.74008       -2.57184
C         -7.66703      -21.72302       -4.03312
C         -7.38141      -20.66279       -4.77746
S         -7.05740      -19.12353       -4.10711
C         -8.08590      -22.97119       -4.49693
C         -8.52429      -23.72756       -3.43986
C         -9.22472      -24.86074       -3.88426
C         -9.19553      -24.93601       -5.27341
S         -8.30151      -23.65110       -6.00241
C         -8.26481      -22.97759       -2.22113
C         -8.39953      -23.48980       -0.86919
C         -9.48656      -23.93260       -0.21434
C        -10.85172      -23.95170       -0.68476
C        -11.64409      -22.89782       -0.92616
C        -12.83755      -23.10249       -1.81177
O        -13.41961      -24.13626       -2.06338
C        -13.09418      -21.78219       -2.42187
C        -12.21437      -20.82115       -1.89336
C        -12.22533      -19.54357       -2.43163
C        -13.13464      -19.22752       -3.46411
C        -14.06342      -20.18688       -3.92438
C        -14.02097      -21.49497       -3.41573
C        -15.10919      -19.85051       -4.84911
N        -15.99445      -19.59118       -5.55266
C        -13.04063      -17.84960       -4.00471
O        -12.62312      -16.88440       -3.39539
O        -13.36068      -17.78865       -5.30299
C        -11.43292      -21.45201       -0.79445
C        -10.84214      -20.80524        0.23981
C        -10.46229      -21.47841        1.43889
N        -10.18878      -22.00882        2.43408
C        -10.61239      -19.40116        0.24290
N        -10.37656      -18.26529        0.22161
H         -3.18427       -2.38693       10.45688
H         -1.23004       -6.69961        8.94379
H         -3.93807       -1.89987        8.14836
H         -1.79920       -6.14470        6.57931
H         -5.83795       -3.25357        3.00024
H         -3.68230       -4.69379        0.77298
H         -4.30625      -10.70107       -1.05639
H         -6.13385      -13.09030        2.64725
H         -7.25626      -18.93079        0.53999
H         -7.56045      -20.69256       -0.71003
H         -7.40032      -20.72386       -5.86020
H         -9.78717      -25.54849       -3.27069
H         -9.68047      -25.65433       -5.91758
H         -7.44662      -23.58230       -0.34202
H         -9.34317      -24.37326        0.77563
H        -11.21922      -24.95499       -0.90706
H        -11.54172      -18.77008       -2.09368
H        -14.69479      -22.26868       -3.78018
H        -13.23101      -16.85080       -5.56326
