105

C          2.89123       -4.39387        4.23462
C          2.32811       -4.89177        5.43724
C          3.33364       -5.27718        6.48833
O          4.52313       -5.06256        6.29379
O          2.94614       -5.92077        7.60142
C          0.92010       -5.03164        5.52306
C          0.27488       -5.41002        6.73276
N         -0.12265       -5.75977        7.76409
C          0.10098       -4.82388        4.39803
C          0.70638       -4.42882        3.22191
C          2.07229       -4.12985        3.14813
C          2.33825       -3.66489        1.77324
C          3.17434       -2.66148        1.41800
C          4.13307       -2.12013        2.31971
N          4.92023       -1.70830        3.06559
C          3.09451       -2.05139        0.12974
N          2.99920       -1.53224       -0.90330
C          1.29834       -4.27898        0.94216
C          0.11507       -4.44115        1.85907
O         -1.03908       -4.66865        1.57282
C          1.34123       -5.07403       -0.14866
C          2.52809       -5.59481       -0.79258
S          4.10912       -5.28638       -0.16026
C          4.94429       -6.19567       -1.32248
C          4.05104       -6.86153       -2.12101
C          2.66882       -6.48218       -1.86002
C          1.59261       -6.99871       -2.60339
C          2.00348       -7.92845       -3.59306
S          0.73918       -8.62902       -4.66146
C          3.37327       -8.30708       -3.80063
O          3.69929       -9.25201       -4.74855
C          4.46070       -7.78022       -3.08888
C          6.35773       -6.11708       -1.30707
C          7.06857       -6.90088       -0.48641
C          8.52556       -6.82077       -0.28084
C          9.27123       -7.97042        0.02030
C         10.65763       -7.91825        0.38890
N         11.28336       -9.08759        0.67101
C         10.63003      -10.26963        0.51024
C          9.31000      -10.30076        0.15843
N          8.62231       -9.15543       -0.05874
C          8.58099      -11.51924       -0.02485
N          8.01523      -12.52172       -0.16791
C         11.40543      -11.46618        0.64995
N         11.98180      -12.47087        0.72360
C         11.37061       -6.68913        0.45141
C         10.67956       -5.51927        0.00420
C          9.21881       -5.57942       -0.32676
N          8.70571       -4.36728       -0.60529
S          9.94328       -3.27446       -0.55023
N         11.18735       -4.28328       -0.15824
C         12.69418       -6.53095        1.10592
S         12.83572       -5.25510        2.27121
C         14.45742       -5.61531        2.70278
C         14.72936       -6.89355        2.24275
C         13.83388       -7.31208        1.17566
C         14.01781       -8.48822        0.43673
C         14.99159       -9.33652        0.99959
S         15.15863      -10.98202        0.30343
C         15.79201       -8.95735        2.12501
O         16.60458       -9.89315        2.72730
C         15.77711       -7.68634        2.72942
C         15.22908       -4.74747        3.53301
C         15.32548       -3.40487        3.44038
C         14.59465       -2.46556        2.59897
C         15.02710       -1.26877        2.20296
C         14.05042       -0.20458        1.77233
O         12.93300       -0.34098        1.32483
C         14.71515        1.07536        2.10929
C         16.00070        0.83415        2.61467
C         16.74495        1.88567        3.13185
C         16.22454        3.19209        3.06639
C         14.96552        3.42926        2.45549
C         14.18830        2.34988        1.99841
C         14.42693        4.74980        2.27637
N         13.92036        5.77711        2.09434
C         17.06473        4.30647        3.56525
O         17.05505        5.40450        3.05892
O         17.84385        4.01069        4.62506
C         16.31197       -0.59608        2.38578
C         17.52717       -1.04918        1.99123
C         17.66124       -2.21165        1.17631
N         17.79828       -3.08889        0.42995
C         18.72036       -0.29783        2.19215
N         19.65973        0.34438        2.41772
H          3.97184       -4.27793        4.14818
H          2.02218       -6.11770        7.84310
H         -0.97082       -5.01019        4.42468
H          0.39907       -5.51777       -0.47269
H          0.55421       -6.72944       -2.46211
H          0.95542       -7.78535       -5.68406
H          2.86054       -9.62893       -5.07339
H          5.48141       -8.08817       -3.27418
H          6.81218       -5.34369       -1.91742
H          6.56181       -7.67112        0.09700
H         13.41607       -8.78396       -0.41097
H         16.37886      -10.79854       -0.21714
H         16.27687      -10.76574        2.43270
H         16.42702       -7.44068        3.55743
H         15.87927       -5.23057        4.26088
H         16.02134       -2.93633        4.13729
H         13.54305       -2.69047        2.42812
H         17.73170        1.71169        3.54166
H         13.20389        2.50061        1.55308
H         17.76109        3.13174        5.03686
