102

C         11.71010       -6.28806        6.61540
C         11.29956       -6.89242        7.79564
F         12.11178       -7.76968        8.39866
C         10.05263       -6.62356        8.34430
C          9.19271       -5.72644        7.70784
C          9.56569       -5.12145        6.49895
C         10.84703       -5.41761        5.94227
C         11.21414       -4.90649        4.68966
C         10.27820       -4.19199        3.95724
C          9.05100       -3.84831        4.54745
C          8.68136       -4.27843        5.81045
C          8.21641       -3.09067        3.59444
O          7.12490       -2.60836        3.81172
C          9.00542       -3.03244        2.32003
C         10.20398       -3.86768        2.49851
C         10.60072       -4.84955        1.65139
C          9.63617       -5.57175        0.88833
N          8.82471       -6.21662        0.36707
C         11.92950       -5.36160        1.67726
N         13.03150       -5.72394        1.69715
C          8.63972       -2.19193        1.33508
C          9.42947       -1.93294        0.17291
S         10.59806       -0.67214        0.21026
C         11.27669       -1.06680       -1.34313
C         10.51986       -2.06930       -1.92015
C          9.38146       -2.45237       -1.10558
C          8.37781       -3.32319       -1.53959
C          8.62554       -3.81074       -2.83720
F          7.70885       -4.62557       -3.38072
C          9.78274       -3.49936       -3.60465
F          9.92704       -4.07168       -4.81086
C         10.78845       -2.61501       -3.18301
C         12.39804       -0.32917       -1.83931
C         13.29747        0.21761       -1.00671
C         14.41012        1.01864       -1.43628
C         15.70773        0.72707       -1.22155
C         16.20073       -0.51560       -0.52496
C         16.79217        1.66925       -1.68983
N         17.20270        1.30649       -3.03251
C         18.17437        1.94748       -3.75900
C         18.60834        1.66387       -4.99433
C         19.69577        2.39788       -5.62189
C         20.19315        2.19166       -6.85155
C         21.28570        2.93702       -7.43573
C         21.57203        2.58181       -8.69811
C         20.72444        1.52036       -9.21529
S         19.58764        1.00153       -7.97023
C         20.75802        0.98056      -10.44906
C         21.63899        1.34537      -11.54250
C         21.48144        0.59555      -12.64439
C         20.47493       -0.43455      -12.50760
S         19.67591       -0.31465      -10.96344
C         20.23330       -1.38688      -13.42303
C         19.26619       -2.46963      -13.29897
C         19.35600       -3.68719      -13.86229
C         18.49489       -4.88432      -13.68368
C         17.16663       -4.90876      -13.41045
C         16.40569       -6.11902      -13.34657
N         15.79037       -7.09150      -13.29552
C         16.39710       -3.72519      -13.22255
N         15.75947       -2.76694      -13.06805
C         19.34836       -6.06769      -14.02114
C         20.54058       -5.60890      -14.58408
C         20.57159       -4.14350      -14.62096
O         21.43369       -3.48555      -15.16515
C         21.58134       -6.43297      -14.99912
C         21.41566       -7.82560      -14.84497
C         20.22296       -8.30108      -14.27964
C         19.18142       -7.43767      -13.85097
S         20.22545      -10.02693      -14.18648
C         21.76473      -10.12587      -14.87077
C         22.30628       -8.90493      -15.17069
Br        22.64370      -11.74961      -15.18570
H         12.68647       -6.54454        6.21217
H          9.75163       -7.12603        9.25790
H          8.21392       -5.53624        8.14374
H         12.18947       -5.15322        4.28019
H          7.69910       -4.02961        6.20438
H          7.71325       -1.63014        1.43603
H          7.48800       -3.59614       -0.98980
H         11.64788       -2.41203       -3.80593
H         12.52188       -0.22572       -2.91634
H         13.22249        0.11553        0.07230
H         14.12925        1.93931       -1.94522
H         15.40126       -1.17370       -0.17243
H         16.79883       -0.25902        0.35582
H         16.81932       -1.09471       -1.21712
H         17.65456        1.63005       -1.01358
H         16.42386        2.70196       -1.67722
H         16.68975        0.56188       -3.49572
H         18.61466        2.78276       -3.21647
H         18.16316        0.84720       -5.55626
H         20.13142        3.18071       -5.00489
H         21.81522        3.71061       -6.89640
H         22.36073        3.04378       -9.27554
H         22.35816        2.14887      -11.47861
H         22.05733        0.72569      -13.55140
H         20.81734       -1.37306      -14.34154
H         18.43818       -2.23635      -12.63445
H         22.49357       -6.00891      -15.41059
H         18.30335       -7.87862      -13.39445
H         23.28876       -8.76993      -15.60710
