84

C         -2.61088        1.46138       -3.56426
C         -2.06109        0.22345       -3.43627
C         -0.94842       -0.21973       -4.18990
N         -0.03270       -0.58855       -4.80150
C         -2.59983       -0.76728       -2.55858
N         -3.03119       -1.58040       -1.84288
C         -2.19171        2.49518       -4.56440
C         -3.19894        3.45703       -4.65300
C         -3.16716        4.54567       -5.52036
C         -2.02975        4.70206       -6.34149
C         -0.98938        3.76813       -6.22910
C         -1.04987        2.66026       -5.34277
S          0.31805        4.16665       -7.28822
C         -0.49165        5.52287       -7.88322
C         -1.72364        5.71190       -7.31716
Br         0.22932        6.65925       -9.18636
C         -4.25764        3.20168       -3.66954
O         -5.24272        3.89625       -3.53356
C         -3.82514        1.98722       -2.88829
C         -4.40863        1.60005       -1.73747
C         -5.54649        2.23100       -1.18598
S         -7.16161        1.85951       -1.62674
C         -7.84459        3.07395       -0.58284
C         -6.81740        3.62031        0.14062
C         -5.54146        3.14467       -0.17907
S         -4.26534        3.91595        0.84083
C         -5.66085        4.77898        1.56257
N         -6.91056        4.56037        1.13492
C         -9.24923        3.29730       -0.62347
C         -9.77851        4.50498       -0.37496
C        -11.20067        4.76267       -0.46793
C        -11.81885        5.94107       -0.24782
C        -11.11744        7.22954        0.09668
C        -13.31892        6.05348       -0.39127
N        -13.94874        5.79865        0.88703
C        -14.20355        6.74286        1.84594
C        -14.76591        6.55878        3.04544
C        -14.93437        7.64711        3.94791
S        -16.24194        7.58988        5.10160
C        -15.70217        8.98423        5.81131
C        -14.60366        9.56855        5.21256
C        -14.16316        8.80338        4.11230
C        -14.20424       10.73196        5.99789
S        -12.94041       11.72660        5.72779
C        -15.09927       10.74016        7.13264
C        -15.99603        9.70606        6.98718
O        -16.77345        9.55492        8.06152
C        -16.38256       10.53154        8.96950
C        -15.36608       11.30937        8.38390
C        -16.92630       10.55602       10.28180
C        -17.04187       11.68661       10.99153
C        -17.51544       11.63631       12.31849
S        -19.17208       11.77316       12.79844
C        -18.80651       11.61450       14.49807
C        -17.46858       11.47759       14.61795
C        -16.76811       11.50281       13.43284
O        -15.41151       11.38228       13.50751
C        -15.28678       11.26127       14.87621
N        -13.95083       11.08107       15.33535
O        -13.73863       10.07456       16.02267
O        -13.13437       11.96331       15.04525
C        -16.48128       11.30400       15.60235
H         -3.98885        5.25668       -5.54795
H         -0.19671        1.99317       -5.29854
H         -2.38636        6.53061       -7.57170
H         -4.01841        0.78548       -1.13989
H         -5.45134        5.48367        2.35763
H         -9.89074        2.47098       -0.91669
H         -9.12401        5.33018       -0.10824
H        -11.81621        3.90091       -0.72633
H        -10.04754        7.21366       -0.12432
H        -11.24081        7.45743        1.15947
H        -11.53097        8.05934       -0.48674
H        -13.69815        5.33032       -1.12238
H        -13.60353        7.04157       -0.77286
H        -14.05305        4.82471        1.15623
H        -13.90090        7.73900        1.52971
H        -15.10515        5.57126        3.34640
H        -13.28043        9.01903        3.52156
H        -14.82158       12.10527        8.87452
H        -17.23758        9.59695       10.68978
H        -16.76057       12.65225       10.58432
H        -19.58695       11.63698       15.24602
H        -16.58561       11.22486       16.67519
