99

C         -3.99043        0.14911        3.30048
C         -4.27274       -1.01236        3.94220
C         -3.34733       -1.64629        4.81974
N         -2.59542       -2.16089        5.53625
C         -5.48809       -1.73421        3.74193
N         -6.48534       -2.30721        3.57269
C         -2.70111        0.90737        3.34078
C         -2.66821        1.77565        2.24603
C         -1.62009        2.64497        1.96850
C         -0.53086        2.66565        2.86581
C         -0.55903        1.81082        3.97883
C         -1.63805        0.92476        4.23767
S          0.85953        2.01271        4.94783
C          1.47266        3.20257        3.91950
C          0.66036        3.46866        2.85061
Br         3.10164        4.07824        4.21708
C         -3.91610        1.69345        1.47571
O         -4.10384        2.20688        0.39415
C         -4.83286        0.82995        2.29105
C         -6.17078        0.87347        2.21129
C         -6.89196        1.73143        1.34358
S         -7.32600        3.27518        1.91043
C         -8.31853        3.62753        0.54691
C         -8.31422        2.54557       -0.33080
C         -7.39249        1.51359        0.07847
C         -7.10283        0.35348       -0.81951
C         -7.17723        0.82090       -2.27508
C         -8.55904        1.39186       -2.61974
C         -9.15722        2.37472       -1.58149
C        -10.53691        1.87240       -1.16337
O        -11.46049        1.67526       -1.95063
C         -9.00977        4.87608        0.43178
C         -8.92245        5.85611        1.34876
C         -9.53171        7.16062        1.22084
C         -9.29177        8.05547        0.25101
C         -9.89630        9.36265        0.19009
C         -9.54960       10.05999       -0.90186
C         -8.65377        9.34855       -1.79860
S         -8.19646        7.80847       -1.08554
C         -8.23555        9.76617       -3.00903
C         -8.58436       11.01704       -3.65246
C         -8.09458       11.14950       -4.89342
C         -7.31362       10.01630       -5.33372
S         -7.20159        8.81129       -4.07346
C         -6.71968        9.92281       -6.53415
C         -5.88335        8.81168       -6.95948
C         -4.59735        8.92265       -7.32311
C         -3.69899        7.80602       -7.50899
C         -2.40661        8.14922       -7.38132
C         -2.21651        9.56451       -7.10604
S         -3.72495       10.42795       -7.42521
C         -1.14862       10.14431       -6.52699
C          0.03087        9.48278       -6.00077
C          0.69376       10.22258       -5.09452
C          0.09189       11.52334       -4.86366
S         -1.09736       11.84737       -6.10127
C          0.38969       12.33873       -3.83739
C         -0.29923       13.56017       -3.57564
O         -1.64030       13.79157       -3.89225
C          0.11215       14.71158       -2.95917
C          1.24175       15.30223       -2.31360
O          2.32286       14.79238       -2.08554
N          0.81503       16.57495       -1.98322
C         -0.48835       16.84803       -2.34946
O         -1.11780       17.87391       -2.16945
C         -0.92877       15.64350       -2.97587
C         -2.03170       15.08115       -3.55249
C         -3.32574       15.61231       -3.78078
C         -4.38881       14.80425       -3.87271
H         -1.66046        3.30400        1.10521
H         -1.60649        0.31430        5.13316
H          0.88525        4.20484        2.08789
H         -6.80062        0.33258        2.90885
H         -7.82862       -0.44600       -0.63380
H         -6.10181       -0.04587       -0.62263
H         -6.94372       -0.01184       -2.94801
H         -6.41877        1.59488       -2.45528
H         -9.23894        0.54645       -2.79041
H         -8.48954        1.90323       -3.58898
H         -9.31033        3.34869       -2.06082
H        -10.67901        1.66319       -0.08770
H         -9.59254        5.05052       -0.47011
H         -8.36276        5.73523        2.27198
H        -10.18898        7.42630        2.04636
H        -10.56901        9.72913        0.95357
H         -9.92599       11.04975       -1.10276
H         -9.18590       11.77736       -3.17585
H         -8.25563       12.02050       -5.51313
H         -6.80065       10.74912       -7.23754
H         -6.31650        7.82137       -6.83285
H         -4.04734        6.79299       -7.65326
H         -1.59302        7.43990       -7.42193
H          0.30454        8.46972       -6.25860
H          1.55914        9.87396       -4.54782
H          1.17137       12.05701       -3.13726
H          1.39041       17.23612       -1.49198
H         -3.44581       16.68918       -3.85963
H         -4.30102       13.72486       -3.77577
H         -5.38106       15.21069       -4.03501
