72

C          2.06096      -17.02850       -0.34609
C          1.94181      -16.15295       -1.34643
C          1.57117      -16.47012       -2.69853
C          1.54268      -15.40017       -3.50871
C          1.88833      -14.15323       -2.84792
S          2.23302      -14.45418       -1.13721
C          1.95713      -12.93490       -3.42003
C          1.70752      -12.60338       -4.80931
C          1.90254      -11.30905       -5.10643
C          2.32321      -10.50231       -3.97734
S          2.39088      -11.48571       -2.53582
C          2.63044       -9.19610       -4.07201
C          3.06896       -8.37633       -2.98277
O          3.10062       -8.84342       -1.69428
C          3.70545       -7.96454       -0.84644
C          3.98409       -6.82361       -1.58301
C          3.55651       -7.06781       -2.92838
O          3.74747       -6.22011       -3.97165
C          2.60345       -6.02671       -4.79421
O          4.57754       -5.75429       -0.99256
C          4.66475       -4.59216       -1.80092
C          3.98657       -8.28547        0.51313
C          3.38988       -9.34024        1.09908
C          3.65550       -9.78133        2.42958
S          4.92916       -9.13316        3.42100
C          3.02587      -10.75453        3.16222
N          2.00902      -11.61439        2.94218
C          1.99648      -12.51379        4.11023
O          2.97469      -12.02092        5.08285
C          3.56078      -10.99721        4.42251
C          4.62535      -10.20405        4.75118
C          5.43216      -10.15537        5.94012
S          4.81756      -10.58158        7.50380
C          6.73852       -9.77534        6.08493
N          7.72185       -9.35271        5.26780
C          8.81270       -8.91057        6.14880
O          8.45847       -9.26723        7.52282
C          7.19671       -9.73795        7.39646
C          6.28780      -10.15063        8.33111
C          6.40049      -10.22614        9.76082
S          7.41415       -9.13968       10.67346
C          5.78736      -11.07803       10.64123
N          4.91367      -12.09894       10.56392
C          4.54641      -12.41463       11.95479
O          5.39608      -11.61612       12.84612
C          6.07018      -10.83424       11.97779
C          6.94856       -9.81685       12.19642
H          1.87696      -18.08604       -0.48923
H          2.35376      -16.70676        0.64954
H          1.34421      -17.47591       -3.02079
H          1.28754      -15.46400       -4.55653
H          1.39954      -13.33306       -5.54326
H          1.76652      -10.89521       -6.09692
H          2.57638       -8.73823       -5.05147
H          2.66906       -5.02481       -5.22982
H          1.65977       -6.09544       -4.24213
H          2.61876       -6.73125       -5.62951
H          5.07274       -3.78705       -1.18143
H          3.67735       -4.26962       -2.14817
H          5.35509       -4.74491       -2.63595
H          4.71531       -7.66692        1.02423
H          2.65217       -9.91679        0.54404
H          1.87758      -12.04674        2.03312
H          2.27954      -13.53323        3.82594
H          1.00937      -12.52135        4.58485
H          7.52562       -8.80446        4.43711
H          8.94017       -7.82381        6.09497
H          9.75035       -9.41029        5.88611
H          4.18527      -12.12137        9.85848
H          4.71411      -13.47604       12.16879
H          3.50110      -12.15327       12.15083
H          7.32977       -9.42653       13.12794
