77

C         -1.52011       -3.29007        5.30772
C         -0.74870       -2.95126        6.41590
C         -1.12307       -3.40882        7.70364
C         -0.31452       -3.02668        8.82922
N          0.34417       -2.71334        9.72946
C         -2.26063       -4.22506        7.87568
C         -2.65306       -4.71903        9.16514
N         -2.99149       -5.13886       10.19193
C         -3.02735       -4.58355        6.76503
C         -2.63657       -4.10717        5.52091
C         -3.29651       -4.42728        4.25476
O         -4.36508       -4.99251        4.17427
C         -2.39761       -3.91020        3.16830
C         -1.42701       -2.99912        3.83860
C         -0.70958       -1.99590        3.27235
C          0.10955       -1.11677        4.03136
N          0.77467       -0.40954        4.67218
C         -0.76007       -1.69559        1.88085
N         -0.78627       -1.44453        0.74882
C         -2.44578       -4.34321        1.89397
C         -3.33019       -5.35680        1.29253
N         -3.72341       -5.12042        0.02715
N         -4.50584       -6.04931       -0.65773
C         -4.86131       -7.22192       -0.08899
C         -4.42050       -7.49045        1.20095
C         -3.64340       -6.56159        1.89083
C         -5.69588       -8.15247       -0.87461
C         -6.69717       -8.97767       -0.31386
C         -7.46654       -9.92372       -1.08516
N         -8.35978      -10.71528       -0.44824
C         -8.53395      -10.59245        0.88073
C         -7.82898       -9.67630        1.60322
N         -6.92503       -8.87214        1.01501
C         -7.32652      -10.07690       -2.48437
C         -6.33167       -9.25309       -3.09259
C         -5.49767       -8.29575       -2.27692
N         -4.57720       -7.66232       -3.02552
S         -4.77727       -8.13732       -4.58917
N         -6.01987       -9.20107       -4.40053
C         -8.13003      -11.01057       -3.30480
N         -7.54952      -11.52178       -4.41392
N         -8.23777      -12.36583       -5.26657
C         -9.49689      -12.74534       -4.97705
C        -10.12279      -12.27967       -3.84103
C         -9.43678      -11.39236       -3.00973
C        -10.16839      -13.63387       -5.92878
C         -9.57535      -14.55919       -6.69862
C        -10.30412      -15.05351       -7.91050
O        -11.49843      -15.07397       -8.11484
C         -9.24324      -15.42512       -8.86833
C         -9.42106      -15.75101      -10.20281
C         -8.27232      -15.92097      -10.99168
C         -6.99141      -15.73099      -10.43023
C         -6.84449      -15.41726       -9.06293
C         -7.97753      -15.29587       -8.27023
C         -8.18565      -15.01406       -6.82488
C         -7.35363      -15.37738       -5.81738
C         -7.77413      -15.39619       -4.45269
N         -8.12720      -15.46929       -3.34959
C         -6.03992      -15.87141       -6.05646
N         -4.97480      -16.26784       -6.28372
C         -5.80490      -15.83495      -11.23512
N         -4.83787      -15.90283      -11.86950
C         -8.44101      -16.26663      -12.37397
N         -8.59660      -16.55222      -13.48810
H          0.15287       -2.34907        6.33125
H         -3.90041       -5.22804        6.85486
H         -1.75312       -3.96607        1.14645
H         -4.67558       -8.41711        1.70425
H         -3.31494       -6.80782        2.89306
H         -9.25882      -11.25551        1.33796
H         -7.95444       -9.56182        2.67319
H        -11.12062      -12.60491       -3.56462
H         -9.94894      -11.02380       -2.12704
H        -11.22551      -13.41447       -6.07710
H        -10.42298      -15.84494      -10.61718
H         -5.84588      -15.25169       -8.66292
