93

C          8.63499        1.84267       -5.60508
C          8.37276        3.11925       -5.95841
C          8.50547        4.20492       -5.03955
N          8.59610        5.10353       -4.31226
C          7.89091        3.45851       -7.24631
N          7.51646        3.74120       -8.30797
C          8.51134        0.58987       -6.37575
C          8.39493       -0.54333       -5.54308
C          8.30931       -1.82241       -6.09436
C          8.33728       -1.97180       -7.48062
C          8.46725       -0.85425       -8.30686
C          8.56510        0.42609       -7.75886
C          8.43205       -0.19655       -4.11456
S          9.10537        1.40317       -3.98201
C          7.96391       -0.97524       -3.11754
C          7.88725       -0.62582       -1.72596
C          8.14030        0.57157       -1.04847
C          8.02033        0.45251        0.34432
C          7.58210       -0.79805        0.68907
S          7.37908       -1.85353       -0.57660
C          7.53996       -0.87724        2.09194
C          8.01105        0.29539        2.63603
C          8.26272        1.24740        1.55063
C          8.59886        2.54743        1.63746
C          8.76455        3.19427        2.89171
N          8.89791        3.71697        3.91914
C          8.78360        3.35318        0.47756
N          8.94380        4.01403       -0.46378
C          8.18701        0.16980        4.03678
C          7.81450       -1.10685        4.49187
S          7.06265       -2.00672        3.19000
C          7.93505       -1.74670        5.83046
C          8.10101       -3.14390        6.03738
C          8.12304       -3.74091        7.34407
N          8.14477       -5.09165        7.44612
C          8.24210       -5.86564        6.33875
C          8.31311       -5.29717        5.10255
N          8.24747       -3.95153        4.95961
C          8.44910       -6.05376        3.89520
N          8.56465       -6.68631        2.92901
C          8.27942       -7.27944        6.55801
N          8.30837       -8.42961        6.71364
C          8.12801       -2.97269        8.53278
C          8.01000       -1.56018        8.37289
C          7.89027       -0.94013        7.00144
N          7.74168        0.39501        7.05676
S          7.80610        0.84457        8.64384
N          7.99876       -0.63520        9.34846
C          8.27405       -3.53932        9.90146
C          7.77346       -3.07823       11.12669
C          8.17445       -3.90339       12.20022
C          8.89249       -4.99147       11.76510
S          9.25464       -4.97281       10.15335
C          9.19413       -5.81659       12.86704
C          8.64164       -5.25889       13.99505
C          8.02198       -3.98000       13.65124
C          7.59344       -3.02277       14.49735
C          7.36743       -1.69265       14.04791
N          7.23729       -0.59841       13.68392
C          7.43192       -3.26687       15.88900
N          7.25849       -3.48578       17.01541
C          8.95964       -5.99999       15.14657
C          9.93928       -6.96153       14.87391
S         10.10959       -7.17518       13.14113
C         10.80280       -7.71538       15.73690
C         11.28819       -7.27130       16.91477
C         12.26448       -7.97125       17.76644
C         12.74901       -7.17709       18.82800
C         12.20875       -5.80052       18.81047
C         12.59390       -4.68632       19.47587
C         13.69252       -4.66367       20.36804
N         14.59821       -4.64321       21.10310
C         11.93860       -3.43136       19.27886
N         11.41787       -2.40708       19.11344
S         10.91574       -5.73362       17.63692
C         13.61614       -7.74568       19.76501
C         14.03588       -9.07022       19.61857
C         13.58502       -9.83833       18.54721
C         12.69247       -9.29514       17.62281
H          8.24198       -2.70759       -5.46895
H          8.27357       -2.96404       -7.92127
H          8.50558       -0.98027       -9.38678
H          8.70339        1.26099       -8.43806
H          7.58299       -1.96248       -3.37550
H          8.44820        1.47479       -1.54309
H          8.62299        0.92536        4.68182
H          7.15717       -2.19151       11.21823
H          8.63812       -5.75661       16.15003
H         11.15783       -8.66413       15.34234
H         13.97804       -7.20457       20.63248
H         14.71430       -9.50451       20.35050
H         13.91845      -10.86853       18.44322
H         12.33727       -9.92406       16.81196
