103

C          0.00532        1.20207       -3.84042
C         -1.06173        1.80249       -4.41694
C         -2.24268        2.10169       -3.68305
N         -3.19844        2.34616       -3.07114
C         -1.09373        2.08506       -5.81530
N         -1.13123        2.28961       -6.95833
C          0.08930        0.64706       -2.47562
C          0.95519       -0.45760       -2.51738
C          1.25326       -1.21530       -1.39927
C          0.74146       -0.79016       -0.16364
C         -0.04926        0.39559       -0.08773
C         -0.39383        1.09652       -1.25821
C         -0.45020        0.86957        1.16996
C         -0.11037        0.17902        2.33374
C          0.61846       -1.00429        2.25534
C          1.04258       -1.48585        1.01558
C          1.63066       -0.52026       -3.83857
O          2.41961       -1.35567       -4.22279
C          1.22373        0.75609       -4.52054
C          2.14783        1.42342       -5.23764
C          2.12881        2.84158       -5.44189
C          2.59177        3.58321       -6.52231
C          2.39898        4.98823       -6.35569
C          1.83075        5.28138       -5.14029
S          1.64804        3.91802       -4.17038
C          1.51946        6.61485       -4.77133
C          1.76868        7.62249       -5.66661
C          2.30573        7.29889       -7.03337
O          2.76811        5.93156       -7.26976
C          1.44199        8.89977       -5.10067
C          0.95922        8.80113       -3.80236
S          0.83970        7.14530       -3.32985
C          0.55795        9.85942       -2.89831
C          0.07769       11.12420       -3.17393
C         -0.28273       11.86392       -1.97844
N         -0.80737       13.12237       -2.00077
C         -0.96684       13.59004       -3.27373
C         -1.55501       14.94787       -3.38202
O         -1.89822       15.60801       -2.40965
C         -1.72849       15.51757       -4.73318
C         -1.39869       14.83787       -5.83067
C         -0.83897       13.47714       -5.76366
O         -0.56818       12.89052       -6.80431
C         -0.62354       12.87686       -4.42604
N         -0.08385       11.61640       -4.43601
C         -0.06122       11.14626       -0.82297
S          0.66356        9.63675       -1.19249
C         -0.38385       11.44949        0.54922
C          0.32138       11.06531        1.67880
C         -0.38651       11.35515        2.86893
C         -1.57814       12.00663        2.62348
S         -1.83493       12.27165        0.97307
C         -2.44885       12.34744        3.69750
C         -2.12272       11.88894        4.94900
C         -0.95548       10.96822        5.14012
O          0.07066       11.04280        4.11576
C         -3.03766       12.36417        5.92500
C         -4.15783       12.96378        5.37019
S         -3.88647       13.22934        3.67210
C         -5.40681       13.38016        5.92985
C         -6.08087       12.73544        6.90132
C         -7.48326       12.95991        7.35646
C         -8.12984       14.14863        7.45973
C         -9.43362       14.27103        8.02012
N        -10.49429       14.37123        8.47978
C         -7.52478       15.38442        7.07637
N         -7.03172       16.38884        6.75860
C         -7.98491       11.64418        7.86123
C         -6.88828       10.78649        7.97147
C         -5.66147       11.44631        7.55099
O         -4.56468       10.98970        7.79020
C         -6.95274        9.46862        8.38934
C         -8.19880        8.95424        8.72085
C         -9.35103        9.78543        8.63474
C         -9.23317       11.12942        8.19116
C        -10.58912        9.23319        8.99687
C        -10.68744        7.90294        9.41962
C         -9.55379        7.09744        9.48100
C         -8.31286        7.62107        9.13291
H          1.92413       -2.06599       -1.47826
H         -0.97771        2.01060       -1.18787
H         -1.01827        1.79388        1.25827
H         -0.41539        0.56674        3.30268
H          0.87081       -1.54702        3.16299
H          1.62601       -2.40374        0.98226
H          3.04423        0.89918       -5.56798
H          3.02918        3.13788       -7.40740
H          3.15522        7.95549       -7.25173
H          1.53012        7.49916       -7.78121
H          1.57166        9.84379       -5.61881
H         -2.14424       16.52097       -4.77809
H         -1.52881       15.25922       -6.82276
H          1.27021       10.54339        1.65873
H         -1.31916        9.93160        5.15806
H         -0.46987       11.16036        6.10188
H         -2.91535       12.16552        6.98074
H         -5.87680       14.21367        5.41381
H         -6.04797        8.86871        8.43387
H        -10.13812       11.72359        8.10633
H        -11.49442        9.83573        8.95938
H        -11.65415        7.49333        9.70164
H         -9.63245        6.06201        9.80260
H         -7.43485        6.97977        9.18570
