95

C          2.07305       -8.22965       -6.41804
O          0.94538       -7.89447       -6.70741
C          2.87493       -9.23667       -7.12633
C          4.22740       -9.12589       -6.75878
C          5.12483      -10.06681       -7.24205
C          4.65529      -11.07293       -8.10195
C          3.30025      -11.14012       -8.46433
C          2.38512      -10.21535       -7.97557
Br         2.70837      -12.52733       -9.60361
C          4.35968       -7.97469       -5.82083
C          5.48391       -7.26111       -5.57466
C          6.74274       -7.59622       -6.14832
N          7.76762       -7.88059       -6.61283
C          5.47463       -6.08023       -4.77650
N          5.45200       -5.12522       -4.11792
C          2.98510       -7.67116       -5.36090
C          2.61497       -7.22486       -4.14795
C          1.29542       -7.24362       -3.60300
C          0.74552       -6.31453       -2.71430
C         -0.53837       -6.70772       -2.29039
C         -0.92719       -7.89849       -2.86613
S          0.23397       -8.62077       -3.79535
C         -2.22169       -8.23034       -2.41711
C         -2.65302       -7.22149       -1.58901
C         -1.57756       -6.26024       -1.36999
C         -1.48044       -5.34213       -0.38542
C         -2.51417       -5.16196        0.57690
N         -3.34727       -5.03933        1.37618
C         -0.28653       -4.60030       -0.17017
N          0.69471       -4.01115        0.02158
C         -3.95932       -7.44885       -1.14172
C         -4.28269       -8.80371       -1.31153
S         -3.25199       -9.54010       -2.49613
C         -5.08933       -9.55427       -0.37041
C         -5.14732      -10.90470       -0.03913
C         -4.88735      -11.01325        1.37813
N         -4.67238      -12.17484        2.04616
C         -4.83944      -13.25562        1.25040
C         -4.77513      -14.54396        1.97745
O         -4.45179      -14.62471        3.15906
C         -5.17079      -15.75460        1.24536
C         -5.47705      -15.69948       -0.05228
C         -5.41524      -14.44277       -0.83710
O         -5.64733      -14.48121       -2.03759
C         -5.11176      -13.17834       -0.11935
N         -5.19917      -12.00072       -0.85797
C         -4.76999       -9.78609        1.99677
S         -5.65505       -8.68119        1.05777
C         -4.16251       -9.55471        3.26520
C         -3.11040      -10.33681        3.73935
C         -3.32208      -10.49143        5.10853
C         -4.08452       -9.46815        5.62616
S         -4.75417       -8.47152        4.46787
C         -4.34644       -9.75460        6.97589
C         -3.85777      -11.01126        7.26074
C         -3.17189      -11.55292        6.09113
C         -2.65528      -12.78373        5.89623
C         -2.76493      -13.79564        6.88650
N         -2.86443      -14.61785        7.69980
C         -1.98055      -13.14134        4.69108
N         -1.38190      -13.39998        3.72967
C         -4.18764      -11.39935        8.56739
C         -4.86360      -10.38193        9.24653
S         -5.06431       -8.97101        8.24493
C         -5.20542      -10.39183       10.62302
C         -6.24192       -9.80432       11.23216
C         -6.07006       -9.67082       12.71526
O         -5.30926      -10.27601       13.44155
C         -6.95795       -8.57880       13.11998
C         -7.72624       -8.13293       12.02910
C         -7.42794       -9.01726       10.85800
C         -8.25459       -9.22442        9.80209
C         -9.42197       -8.43578        9.56362
N        -10.36353       -7.79234        9.36853
C         -8.08376      -10.31513        8.89727
N         -7.98695      -11.20915        8.16360
C         -8.57370       -7.05216       12.23158
C         -8.65485       -6.47542       13.51182
C         -7.88014       -6.96173       14.57580
C         -7.00649       -8.02242       14.38775
Br        -8.01824       -6.16142       16.28164
H          6.17444      -10.07677       -6.96551
H          5.35729      -11.81519       -8.47963
H          1.32736      -10.26437       -8.21467
H          3.36670       -6.88474       -3.44096
H          1.27996       -5.42487       -2.40000
H         -4.50142       -6.78155       -0.48300
H         -5.21040      -16.67500        1.81819
H         -5.78860      -16.58959       -0.59124
H         -2.55921      -11.01626        3.09999
H         -3.94779      -12.34844        9.03173
H         -4.46442      -10.89589       11.24726
H         -9.18373       -6.62163       11.44423
H         -9.33319       -5.63868       13.67256
H         -6.37771       -8.40652       15.18508
