98

C         12.03190       -0.93515        5.31244
C         12.97200       -1.37785        6.20920
S         12.42046       -1.13545        7.83492
C         10.94830       -0.46255        7.30498
Cl         9.78297        0.03980        8.45551
C         10.86752       -0.43040        5.94501
C          9.85091       -0.03262        5.01017
O          8.73034        0.39008        5.23305
C         10.48282       -0.33967        3.65017
C         11.88240       -0.87730        3.87107
C         12.81850       -1.21785        2.95089
C         14.09775       -1.71639        3.32841
N         15.13503       -2.13024        3.64304
C         12.61518       -1.11361        1.54612
N         12.45337       -1.04389        0.40121
C          9.78380       -0.18647        2.50489
C          8.40530        0.32059        2.36749
C          8.09192        1.67578        2.18596
C          9.05868        2.73728        1.87671
O         10.22490        2.54224        1.58630
S          8.31238        4.30883        1.87665
C          6.71299        3.60173        1.96148
O          5.71246        4.25441        1.75660
C          6.76571        2.14761        2.19346
C          5.67221        1.26551        2.35484
C          6.00252       -0.09205        2.34790
C          7.30344       -0.53744        2.38280
C          7.27237       -1.98172        2.37748
O          8.22479       -2.73071        2.37916
O          5.96466       -2.34372        2.32126
C          5.14373       -1.26902        2.22795
O          3.94938       -1.31887        2.02530
C          4.28376        1.72601        2.47054
C          3.36306        1.17206        3.28345
C          1.99117        1.59696        3.35767
N          0.91234        0.75597        3.65602
C          0.95002       -0.67554        3.89378
C          1.13707       -1.02557        5.36245
C         -0.30637        1.47094        3.68180
O         -1.43399        1.08740        3.91757
C          0.11068        2.84617        3.35199
C          1.53349        2.83923        3.19318
C          1.96126        4.21009        2.90635
O          3.09020        4.61802        2.74704
N          0.75411        4.92767        2.89017
C          0.80949        6.34960        2.63624
C          0.62612        6.68670        1.16233
C         -0.34059        4.08884        3.14845
C         -1.72812        4.45690        3.24173
C         -2.24766        5.66007        2.97832
C         -3.59884        5.98933        3.20020
O         -4.54969        5.09681        3.65063
C         -5.63918        5.86360        3.89371
C         -5.33936        7.16636        3.53546
N         -4.06604        7.22428        3.06519
C         -6.28591        8.16991        3.74132
C         -7.48142        7.83458        4.37665
C         -7.71056        6.51757        4.73812
C         -6.83417        5.48365        4.46951
O         -8.86178        6.47251        5.45319
C         -9.28268        7.78352        5.51636
N         -8.52415        8.60752        4.80074
C        -10.33377        8.20380        6.36449
C        -11.11452        9.25007        6.06438
C        -11.60534       10.02727        7.27206
O        -11.69691        9.65036        8.42389
C        -11.80982       11.33780        6.71868
C        -12.09288       12.56236        7.24110
S        -12.17663       13.75906        6.02850
C        -11.80359       12.62318        4.77442
C        -11.62229       11.37569        5.30999
C        -11.30716       10.05689        4.82393
C        -11.35714        9.61181        3.54658
C        -11.59800       10.48872        2.45655
N        -11.80563       11.21402        1.56979
C        -11.28154        8.22748        3.21499
N        -11.25545        7.09642        2.94910
Cl       -12.32805       12.99537        8.88144
H         13.93982       -1.84092        6.06571
H         10.19681       -0.46795        1.54308
H          4.02198        2.58236        1.85317
H          3.61256        0.32704        3.91853
H          1.73132       -1.13606        3.28448
H         -0.00364       -1.10274        3.55982
H          2.08226       -0.63314        5.74923
H          1.14036       -2.11294        5.49514
H          0.32662       -0.61403        5.97303
H          1.79550        6.72001        2.94108
H          0.11386        6.88120        3.28788
H          1.40840        6.21913        0.55478
H          0.68270        7.76946        1.01339
H         -0.33645        6.33978        0.77419
H         -2.39423        3.65770        3.57331
H         -1.67161        6.49681        2.63409
H         -6.05885        9.19813        3.48049
H         -7.03560        4.46021        4.75684
H        -10.31226        7.78404        7.36742
H        -11.74139       12.96952        3.75186
