116

C         -3.83835       -1.66226        4.85645
N         -3.99709       -0.90769        6.02055
C         -3.97475       -1.51840        7.33998
C         -4.21914       -0.58584        8.51363
C         -4.17615        0.46011        5.72464
O         -4.34389        1.42522        6.44269
C         -4.12711        0.47238        4.25093
C         -3.90865       -0.86538        3.79338
C         -3.87004       -0.84074        2.32402
O         -3.71488       -1.79276        1.58882
N         -4.08157        0.52704        2.02869
C         -4.22455        0.96462        0.65607
C         -2.90521        1.41023        0.03818
C         -4.20962        1.28986        3.19843
C         -4.44832        2.70183        3.32277
C         -4.28787        3.63175        2.37744
C         -4.54929        5.03521        2.61930
C         -5.83776        5.58678        2.55226
C         -7.08755        4.86490        2.27019
O         -7.16838        3.68895        1.97031
S         -8.47190        5.92541        2.35312
C         -7.46368        7.32265        2.64500
O         -7.91342        8.44279        2.78867
C         -6.03964        6.95696        2.69447
C         -4.94906        7.81882        2.84499
C         -3.68018        7.24978        2.93950
C         -3.48722        5.90270        2.85360
C         -2.06245        5.65364        3.00071
O         -1.50204        4.57950        3.01764
O         -1.47690        6.87259        3.11782
C         -2.37589        7.88467        3.07218
O         -2.13251        9.07381        3.11682
C         -5.01963        9.26123        2.89506
C         -5.45867       10.00535        1.87295
C         -5.30778       11.46220        1.86669
C         -5.07051       12.17112        0.66953
C         -5.04538       11.62361       -0.70188
O         -5.24695       10.46309       -1.00665
S         -4.70371       12.85328       -1.89316
C         -4.64170       14.09996       -0.67816
O         -4.45864       15.27163       -0.94989
C         -4.83398       13.54897        0.67668
C         -4.79984       14.27076        1.87837
C         -4.94126       13.53829        3.05929
C         -5.29899       12.21595        3.04872
C         -5.66141       11.87943        4.42822
O         -6.25379       10.90492        4.83939
O         -5.24849       12.91278        5.19454
C         -4.76207       13.93027        4.45670
O         -4.24782       14.93638        4.89960
C         -4.70011       15.72340        1.88754
C         -5.37787       16.45741        2.77749
C         -5.32874       17.90565        2.86279
C         -4.18006       18.68286        2.63806
C         -2.80243       18.20551        2.39928
O         -2.37934       17.08564        2.60896
S         -1.77610       19.48203        1.81385
C         -2.94860       20.68688        2.27187
O         -2.66989       21.86798        2.29345
C         -4.24859       20.07951        2.63217
C         -5.45852       20.74433        2.90513
C         -6.57660       19.95078        3.16898
C         -6.50858       18.58470        3.17543
C         -7.83460       18.07877        3.51668
O         -8.17029       16.92285        3.67336
O         -8.63185       19.16668        3.64060
C         -7.96264       20.32440        3.42252
O         -8.44142       21.43908        3.40656
C         -5.63117       22.18909        2.86319
C         -4.86096       23.02851        3.55889
C         -4.96149       24.44498        3.52215
S         -3.62167       25.29881        4.17166
C         -4.44250       26.80664        4.19178
C         -5.73287       26.63781        3.69387
C         -5.89715       25.34741        3.03032
C         -7.09123       25.06604        2.13427
C         -6.67511       24.49887        0.82711
N         -6.39561       24.01957       -0.19372
C         -7.89378       26.34428        1.84492
C         -8.16992       27.09992        3.13370
C         -6.87995       27.62523        3.79607
O         -7.13546       27.85385        5.18861
C         -8.06996       28.87918        5.46904
C         -3.69433       27.89062        4.74397
C         -4.11564       29.15385        4.84902
H         -3.69255       -2.73269        4.88058
H         -2.99782       -2.00100        7.45857
H         -4.73702       -2.30659        7.34536
H         -3.45311        0.19433        8.56605
H         -4.18898       -1.14704        9.45272
H         -5.20024       -0.10547        8.44103
H         -4.99071        1.74357        0.59275
H         -4.61073        0.12734        0.06290
H         -2.37998        2.14483        0.65627
H         -3.08211        1.85820       -0.94523
H         -2.22879        0.56017       -0.08938
H         -4.76381        3.02021        4.31892
H         -3.93159        3.42226        1.38152
H         -4.55994        9.68266        3.78463
H         -5.84816        9.52505        0.97942
H         -4.07026       16.18266        1.13170
H         -6.03697       15.98309        3.50073
H         -6.45094       22.51060        2.24114
H         -4.07832       22.61850        4.19787
H         -7.75107       24.35822        2.65401
H         -8.84152       26.08295        1.35656
H         -7.35314       26.99789        1.14655
H         -8.71918       26.45031        3.82850
H         -8.83652       27.94397        2.91980
H         -6.58524       28.55851        3.30222
H         -8.07175       29.04281        6.55019
H         -9.07841       28.57565        5.17582
H         -7.78805       29.81005        4.97137
H         -2.68115       27.68138        5.08873
H         -5.09124       29.49695        4.54340
H         -3.45346       29.90168        5.27502
