99

C        -17.82009       -2.54951       -0.23604
C        -18.34227       -2.71418        1.00517
C        -18.81711       -3.96658        1.50507
N        -19.19934       -4.97798        1.91545
C        -18.46357       -1.63274        1.92517
N        -18.55965       -0.75454        2.67864
C        -17.69684       -3.60655       -1.29734
C        -17.26967       -2.99276       -2.47772
C        -16.82579       -3.67705       -3.60296
C        -16.78305       -5.08470       -3.52627
C        -17.31482       -5.71355       -2.39049
C        -17.81470       -4.99151       -1.27683
S        -17.20893       -7.43311       -2.52854
C        -16.29295       -7.31960       -3.94153
C        -16.18938       -6.04081       -4.41976
Br       -15.47590       -8.79744       -4.75095
C        -17.20076       -1.53840       -2.31443
O        -17.08752       -0.73558       -3.21709
C        -17.30307       -1.30101       -0.83559
C        -16.71110       -0.23389       -0.26773
C        -16.04193        0.82749       -1.00676
C        -14.73770        1.13497       -0.92817
C        -14.07405        2.08664       -1.79037
C        -12.73714        1.96424       -1.78781
C        -12.26024        0.88855       -0.93018
S        -13.58111        0.33693        0.10789
C        -11.07542        0.25331       -1.02524
C        -10.05498        0.48895       -2.03255
C         -9.28148       -0.58775       -2.25147
C         -9.61595       -1.71938       -1.40005
S        -10.66106       -1.19879       -0.10349
C         -9.23507       -2.98542       -1.64126
C         -9.61905       -4.12941       -0.87084
S        -11.01594       -5.03057       -1.31872
C        -10.70875       -6.28686       -0.18461
C         -9.59925       -5.99078        0.59093
C         -8.96622       -4.74848        0.18534
C         -7.68639       -4.29203        0.82983
F         -6.64298       -4.69360        0.04621
C         -7.52806       -4.90115        2.22552
F         -6.31463       -4.55649        2.74362
C         -7.65701       -6.42051        2.17487
F         -6.74116       -6.94289        1.31024
C         -9.06560       -6.83033        1.73335
F         -9.89090       -6.66796        2.81161
C        -11.57230       -7.42146       -0.13392
C        -11.36676       -8.46794       -0.95170
C        -12.19610       -9.67370       -0.98534
N        -12.23947      -10.33536       -2.15352
C        -12.99390      -11.44833       -2.17899
C        -13.66656      -11.93454       -1.08305
C        -13.54002      -11.19495        0.07483
N        -12.82214      -10.05519        0.13777
C        -14.18677      -11.64684        1.31660
C        -14.07276      -10.99532        2.48646
C        -14.71793      -11.43107        3.70174
C        -14.50293      -12.57661        4.36182
C        -13.59788      -13.71030        4.14962
C        -12.28299      -13.64924        3.81375
C        -11.46423      -14.81014        3.73031
N        -10.80258      -15.76290        3.65565
C        -11.58313      -12.42319        3.64165
N        -10.96437      -11.44690        3.53588
C        -14.31253      -14.91210        4.66574
C        -15.38851      -14.47588        5.44734
C        -15.52331      -13.01023        5.36898
O        -16.34561      -12.33015        5.94472
C        -16.24926      -15.33104        6.12476
C        -16.03188      -16.72167        5.98940
C        -14.97888      -17.16457        5.17307
C        -14.10737      -16.27495        4.49754
S        -14.91518      -18.89015        5.11716
C        -16.23612      -19.03545        6.15590
C        -16.74796      -17.83088        6.55832
Br       -16.93339      -20.68760        6.69605
H        -16.41951       -3.13688       -4.45398
H        -18.17534       -5.55198       -0.42352
H        -15.65367       -5.77299       -5.32269
H        -16.59715       -0.15332        0.80991
H        -16.65220        1.32473       -1.76054
H        -14.61691        2.78118       -2.41740
H        -12.08796        2.56047       -2.41281
H         -9.98038        1.40425       -2.60484
H         -8.51688       -0.63081       -3.01609
H         -8.63554       -3.19434       -2.52339
H         -7.63121       -3.20156        0.89333
H         -8.28513       -4.49153        2.90609
H         -7.42858       -6.84050        3.16024
H         -9.06964       -7.89217        1.46389
H        -12.39783       -7.41468        0.57428
H        -10.55884       -8.46841       -1.67675
H        -13.03897      -11.95700       -3.13791
H        -14.24947      -12.84361       -1.14339
H        -14.78801      -12.54919        1.24617
H        -13.50758      -10.06546        2.55481
H        -15.49895      -10.75209        4.05015
H        -17.07032      -14.93700        6.71764
H        -13.32500      -16.68411        3.86804
H        -17.59731      -17.72816        7.22309
