115

C        -11.59402        7.69615       -3.49326
C        -10.67776        8.69461       -3.47939
C        -10.71979        9.84400       -4.31481
N        -10.71954       10.80391       -4.96813
C         -9.60558        8.75818       -2.56496
N         -8.70996        8.89980       -1.82873
C        -12.82144        7.69951       -4.32902
C        -13.67924        6.69368       -3.87495
C        -14.90977        6.42390       -4.45309
C        -15.29253        7.20511       -5.56764
C        -14.44008        8.22349       -6.01330
C        -13.19684        8.48666       -5.40950
S        -15.10209        9.06717       -7.36369
C        -16.46175        8.07220       -7.38287
C        -16.45806        7.12221       -6.39692
Br       -17.83723        8.25221       -8.63735
C        -13.06606        5.94337       -2.76577
O        -13.57542        5.04838       -2.12239
C        -11.68567        6.50193       -2.62311
C        -10.74993        5.85274       -1.91719
N        -10.82601        4.70930       -1.14515
C         -9.82735        4.04559       -0.47817
S        -10.24107        3.17639        0.96703
C         -8.66453        2.59166        1.16528
N         -8.31882        1.69604        2.23851
O         -7.16031        1.25543        2.23042
O         -9.18282        1.42330        3.07936
C         -7.80630        3.03982        0.19406
C         -8.46818        3.87336       -0.75901
C         -7.78919        4.41054       -1.89720
C         -6.76054        3.86263       -2.56836
C         -6.23871        4.50931       -3.78246
C         -4.86971        4.49995       -4.06381
C         -4.42518        5.25276       -5.14671
C         -5.32349        5.97811       -5.95793
C         -6.67970        5.92593       -5.73515
C         -7.13075        5.16800       -4.66131
C         -4.59053        6.79839       -6.88706
C         -3.21246        6.65432       -6.63616
C         -2.98817        5.56927       -5.57343
C         -2.16358        6.07784       -4.36060
C         -2.78777        7.23917       -3.57897
C         -2.30935        4.33089       -6.22918
C         -3.09679        3.66319       -7.36425
C         -2.28428        7.42858       -7.31636
C         -2.74753        8.35751       -8.26081
C         -4.12702        8.43304       -8.55449
C         -5.05616        7.65771       -7.86420
C         -1.76983        9.21754       -8.94145
C         -2.05617       10.46462       -9.33826
N         -1.20905       11.35247       -9.96009
C         -1.49830       12.61206      -10.41065
S         -3.07666       13.30949      -10.22458
C         -2.63612       14.69821      -11.04876
N         -3.62173       15.69324      -11.29868
O         -3.78954       16.00982      -12.48249
O         -4.20046       16.17640      -10.31820
C         -1.32576       14.71789      -11.44261
C         -0.64335       13.51377      -11.05554
C          0.75824       13.26111      -11.29908
C          1.60229       14.08963      -11.93548
C          3.02906       13.98446      -12.17416
C          3.93657       13.03572      -11.90885
C          3.89987       11.71526      -11.28842
C          3.14591       10.66166      -11.67503
C          3.25712        9.37531      -11.06878
N          3.31869        8.34669      -10.54482
C          2.24807       10.74379      -12.77854
N          1.50325       10.79643      -13.66809
C          5.11082       11.63267      -10.42893
C          6.01928       12.59338      -10.88724
C          5.38007       13.45814      -11.89800
O          5.90228       14.36322      -12.51240
C          7.29337       12.76057      -10.36468
C          7.66089       11.94271       -9.27147
C          6.72611       11.02256       -8.76636
C          5.43993       10.84610       -9.33468
S          7.36030       10.18292       -7.39547
C          8.83221       11.00172       -7.49346
C          8.88830       11.89988       -8.52495
Br        10.24593       10.71382       -6.29909
H        -15.53643        5.62064       -4.07636
H        -12.58431        9.27486       -5.82780
H        -17.23985        6.38722       -6.25982
H         -9.75768        6.26633       -1.90620
H        -11.79159        4.39892       -0.97504
H         -6.75720        2.76993        0.15218
H         -8.14521        5.36018       -2.26421
H         -6.28931        2.93764       -2.25655
H         -4.16210        3.98870       -3.41760
H         -7.37147        6.49815       -6.34035
H         -8.20200        5.11971       -4.48915
H         -1.16337        6.38435       -4.68943
H         -2.01360        5.25114       -3.65313
H         -2.91694        8.12668       -4.20461
H         -2.14099        7.51100       -2.73863
H         -3.76218        6.97679       -3.15439
H         -2.11861        3.56556       -5.46639
H         -1.32893        4.62205       -6.62939
H         -4.01225        3.19260       -6.99129
H         -2.49275        2.87729       -7.82929
H         -3.37073        4.36978       -8.15369
H         -1.22545        7.33052       -7.09905
H         -4.49779        9.11218       -9.31935
H         -6.11351        7.74584       -8.08803
H         -0.77677        8.80561       -9.07768
H         -3.05229       10.86022       -9.15920
H         -0.29291       10.95816      -10.13486
H         -0.88832       15.55356      -11.97352
H          1.13647       12.32966      -10.90752
H          1.22139       15.05024      -12.28358
H          3.42364       14.93085      -12.56372
H          7.96381       13.51775      -10.76204
H          4.75210       10.13273       -8.89250
H          9.75232       12.51659       -8.74249
