81

C         -1.48340       -1.01989       -0.90228
C         -2.45419       -0.71529        0.07356
C         -2.17618        0.34369        0.95971
C         -0.97853        1.06234        0.87888
C         -0.04564        0.73778       -0.10860
C         -0.29126       -0.29755       -1.00113
N          1.14317        1.46720       -0.19346
C          1.46141        2.49967        0.65114
O          2.51987        3.10677        0.52457
C          0.47171        2.83769        1.71427
C         -0.68051        2.14993        1.81049
C          0.76979        3.88917        2.61731
N          0.95945        4.74089        3.38648
C         -3.71137       -1.47614        0.16251
C         -4.39814       -1.69681        1.34507
N         -5.54497       -2.39975        1.45135
C         -6.05211       -2.89706        0.31736
N         -5.48110       -2.75476       -0.88841
C         -4.33229       -2.05019       -0.93327
C         -7.30084       -3.65349        0.40205
N         -7.68156       -4.71833       -0.43183
C         -6.91411       -5.26129       -1.53574
C         -7.26101       -4.59439       -2.85814
C         -8.94600       -5.22598       -0.08085
O         -9.58560       -6.13426       -0.56967
C         -9.33129       -4.37874        1.05994
C         -8.26618       -3.44189        1.30355
C         -8.65903       -2.59990        2.45032
O         -8.05213       -1.67548        2.94934
N         -9.92186       -3.12630        2.79912
C        -10.69472       -2.60653        3.91079
C        -10.35574       -3.29736        5.22290
C        -10.29777       -4.16931        1.95308
C        -11.53628       -4.87605        2.09492
C        -12.44919       -4.98951        1.11920
C        -13.66026       -5.70846        1.32414
S        -14.40224       -6.48530       -0.00345
C        -15.69230       -7.09480        0.94715
C        -16.68285       -7.86274        0.21926
O        -17.86455       -8.00382        0.52554
C        -15.58415       -6.72362        2.28245
C        -14.40076       -5.91944        2.47369
C        -16.51341       -7.12225        3.35515
C        -17.14111       -8.37673        3.35466
C        -18.02880       -8.75061        4.36662
C        -18.25521       -7.88794        5.42968
C        -17.61554       -6.64579        5.48578
C        -16.75365       -6.26397        4.44563
C        -17.86551       -5.77964        6.64025
C        -18.68893       -6.17032        7.63063
C        -19.37037       -7.49502        7.56602
O        -20.12097       -7.89130        8.45159
N        -19.11719       -8.26895        6.46278
C        -18.92124       -5.33843        8.75509
N        -19.06136       -4.60936        9.65071
H         -1.63343       -1.84104       -1.60163
H         -2.90487        0.62673        1.71772
H          0.42950       -0.56007       -1.77066
H          1.82885        1.25295       -0.90680
H         -1.40971        2.37763        2.58272
H         -4.04055       -1.31340        2.29727
H         -3.92343       -1.95654       -1.93592
H         -7.14040       -6.33110       -1.61422
H         -5.84293       -5.18923       -1.32254
H         -8.32494       -4.70953       -3.08851
H         -6.68231       -5.04142       -3.67218
H         -7.04610       -3.52187       -2.83937
H        -11.76324       -2.70842        3.69422
H        -10.48544       -1.53503        4.00848
H        -10.50028       -4.38002        5.15161
H        -10.99772       -2.92034        6.02552
H         -9.31397       -3.11730        5.50815
H        -11.69809       -5.33416        3.06698
H        -12.26995       -4.54945        0.13838
H        -16.31134       -8.36126       -0.69477
H        -14.09986       -5.51463        3.43293
H        -16.96185       -9.09496        2.55997
H        -18.52446       -9.71510        4.30609
H        -16.27185       -5.28966        4.49007
H        -17.36065       -4.81903        6.67581
H        -19.58768       -9.16486        6.43211
