116

C         -1.23096       -2.30856       -1.68539
N         -2.23310       -2.13678       -0.73724
C         -2.99202       -3.20486       -0.12367
C         -3.76521       -4.04340       -1.12748
C         -2.37034       -0.78648       -0.36215
O         -3.11244       -0.27918        0.45905
C         -1.37024       -0.11346       -1.21144
C         -0.70402       -1.12453       -1.99097
C          0.31407       -0.46271       -2.82185
O          1.07886       -0.99399       -3.59994
N          0.16344        0.89656       -2.47124
C          1.00001        1.93408       -3.04269
C          2.27638        2.14897       -2.24301
C         -0.84687        1.07555       -1.51980
C         -1.18562        2.35362       -0.96167
C         -2.41882        2.70129       -0.55689
C         -2.67830        3.97901        0.00503
C         -1.82672        4.82798        0.70864
C         -2.49425        6.00322        1.04825
C         -3.80678        6.06689        0.63988
S         -4.27809        4.66521       -0.14986
C         -4.48407        7.29267        0.93605
C         -3.73099        8.24778        1.58560
Si        -2.01946        7.59271        1.87444
C         -1.54970        7.46584        3.65495
C         -0.70005        8.50737        0.95047
C         -4.40017        9.44613        1.83707
C         -5.69429        9.38514        1.33466
S         -6.03966        7.83380        0.62256
C         -6.69372       10.42338        1.33206
O         -7.93159       10.22722        0.78936
C         -8.67695       11.37574        0.86950
C         -7.88594       12.33447        1.49501
C         -6.63564       11.72699        1.80172
O         -5.50260       12.23581        2.34811
C         -5.69814       13.24686        3.32550
C         -8.27177       13.69229        1.69603
N         -8.59181       14.79118        1.88772
C         -9.97054       11.41193        0.27946
C        -10.97525       12.19087        0.70899
C        -12.23905       12.27491        0.03960
C        -13.32989       13.07166        0.40233
C        -14.33690       12.99445       -0.56844
C        -14.05503       12.15976       -1.62424
S        -12.58049       11.39732       -1.43632
C        -15.02311       12.11882       -2.67628
C        -16.13370       12.91821       -2.50903
Si       -15.95922       13.84769       -0.89780
C        -17.30959       13.58135        0.32620
C        -15.72116       15.67901       -1.13896
C        -17.06006       12.84050       -3.55821
C        -16.57306       12.02337       -4.57858
S        -15.05281       11.29233       -4.13621
C        -17.11962       11.74515       -5.85285
N        -16.85701       12.47195       -7.01684
C        -15.96634       13.60429       -7.15395
C        -14.56223       13.18527       -7.56124
C        -17.50356       11.90820       -8.13405
O        -17.48485       12.25179       -9.29808
C        -18.21632       10.76306       -7.54907
C        -17.94365       10.73265       -6.13397
C        -18.66240        9.57451       -5.57083
O        -18.69262        9.21725       -4.41129
N        -19.28683        9.01054       -6.70670
C        -20.07000        7.79231       -6.64168
C        -21.54331        8.06136       -6.38415
C        -19.00309        9.73514       -7.86376
C        -19.49145        9.37359       -9.16275
C        -18.69240        9.08694      -10.19826
H         -0.96244       -3.27926       -2.07569
H         -3.69532       -2.77234        0.59737
H         -2.29238       -3.83127        0.43980
H         -4.45055       -3.42316       -1.71442
H         -4.35165       -4.80741       -0.60774
H         -3.09185       -4.55260       -1.82403
H          0.43198        2.86760       -3.11566
H          1.26704        1.64038       -4.06458
H          2.05523        2.42557       -1.20720
H          2.87391        2.95056       -2.68890
H          2.88671        1.24011       -2.22161
H         -0.37050        3.07157       -0.88735
H         -3.25570        2.01246       -0.65524
H         -0.79477        4.59168        0.93525
H         -2.36158        7.04066        4.25359
H         -1.31596        8.45149        4.06963
H         -0.66908        6.83080        3.79096
H         -0.93865        8.56419       -0.11654
H          0.26792        8.00693        1.04850
H         -0.59275        9.52974        1.32382
H         -3.97392       10.31407        2.32258
H         -4.77327       13.32885        3.90463
H         -6.50543       12.99358        4.02091
H         -5.87037       14.21490        2.84780
H        -10.09286       10.73935       -0.56496
H        -10.85640       12.82432        1.58363
H        -13.33792       13.70239        1.28449
H        -17.57146       12.52269        0.41536
H        -18.21569       14.12137        0.03277
H        -17.02421       13.93728        1.32134
H        -14.89755       15.87643       -1.83267
H        -15.48488       16.17224       -0.19103
H        -16.62404       16.14166       -1.54747
H        -18.00566       13.36572       -3.61526
H        -15.95187       14.18645       -6.22768
H        -16.37047       14.25526       -7.93931
H        -14.11486       12.51459       -6.82316
H        -13.91669       14.06325       -7.66034
H        -14.57080       12.65944       -8.52204
H        -19.67537        7.17150       -5.82924
H        -19.94237        7.22472       -7.56991
H        -21.69083        8.53234       -5.40703
H        -22.10628        7.12246       -6.39809
H        -21.96809        8.72486       -7.14400
H        -20.56991        9.32732       -9.28909
H        -17.60926        9.11226      -10.11551
H        -19.10835        8.82014      -11.16444
