111

C          1.21232        5.03264        2.39750
C          0.20627        4.59884        3.26340
C          0.15907        3.26900        3.67256
C          1.10370        2.35912        3.20060
C          2.09598        2.76455        2.29890
C          2.98401        1.82028        1.75750
C          3.89641        2.22699        0.80040
C          4.01646        3.59182        0.49536
C          3.17312        4.55445        1.02192
C          2.16737        4.13265        1.90354
C          5.15878        3.81210       -0.41783
O          5.54045        4.87547       -0.85954
C          5.77748        2.45694       -0.59665
C          4.80475        1.48236       -0.10498
C          4.52801        0.27251       -0.65018
C          5.14528       -0.15745       -1.86034
N          5.58845       -0.49818       -2.88037
C          3.51709       -0.58924       -0.13808
N          2.71602       -1.29591        0.31233
C          7.08397        2.38170       -0.90160
C          7.90758        1.22961       -0.71895
C          7.81199        0.15052        0.16869
C          8.92214       -0.72114        0.06666
C          9.86612       -0.20879       -0.79648
S          9.39492        1.14284       -1.63215
C         11.06835       -0.93808       -0.65574
C         10.88859       -1.95044        0.26171
C          9.43319       -1.99881        0.76269
C          8.70195       -3.23322        0.21941
C          9.32868       -1.92822        2.28517
C         12.11460       -2.59904        0.55064
C         13.18937       -2.03206       -0.14932
S         12.62944       -0.72436       -1.16281
C         14.64267       -2.34109       -0.07066
C         15.55529       -2.27519       -1.15343
C         16.96549       -2.58400       -1.00870
N         17.78532       -2.49701       -2.08299
C         17.26517       -2.10581       -3.26542
C         15.93550       -1.80476       -3.40176
N         15.08200       -1.90988       -2.36524
F         15.44841       -1.39236       -4.57998
F         18.08669       -2.03518       -4.32182
C         17.53291       -2.97621        0.22581
C         16.64159       -3.07452        1.33566
C         15.18223       -2.73127        1.18947
N         14.51652       -2.82929        2.35615
S         15.58389       -3.33231        3.50655
N         16.93805       -3.47963        2.58383
C         18.97683       -3.28355        0.39555
C         19.85678       -3.92010       -0.48751
C         21.17095       -3.99358        0.03494
C         21.24922       -3.41057        1.28288
S         19.83258       -2.74168        1.82227
C         22.58008       -3.49137        1.75782
C         23.35892       -4.11174        0.80636
C         22.54118       -4.51918       -0.42674
C         23.03334       -3.80491       -1.68728
C         22.54544       -6.03786       -0.61184
C         24.70583       -4.20611        1.21604
C         24.91162       -3.63674        2.47302
S         23.39753       -3.04045        3.13082
C         26.07961       -3.52738        3.29140
C         27.33961       -3.35491        2.85710
C         28.60937       -3.39113        3.63657
C         28.79378       -3.01129        4.92611
C         30.07773       -2.98608        5.54683
N         31.11889       -2.96625        6.05322
C         27.73135       -2.53884        5.75294
N         26.87154       -2.16042        6.43224
C         29.68988       -3.74927        2.66489
C         29.15674       -3.66197        1.37269
C         29.86478       -3.94657        0.21709
C         31.19926       -4.32808        0.34249
C         31.96082       -4.62033       -0.79704
C         33.30356       -4.97247       -0.67892
C         33.89558       -5.04107        0.57887
C         33.14397       -4.77202        1.72644
C         31.78914       -4.41549        1.63424
C         31.01822       -4.14196        2.78994
C         27.75199       -3.26043        1.41624
O         27.12479       -2.88276        0.45025
H          1.22773        6.07736        2.09343
H         -0.54556        5.30029        3.61605
H         -0.62325        2.93393        4.34921
H          1.03880        1.32182        3.52419
H          2.91502        0.78343        2.07310
H          3.28445        5.59576        0.73298
H          7.59130        3.29461       -1.21788
H          7.02071        0.02731        0.89579
H          8.77503       -3.29779       -0.87343
H          7.63537       -3.20358        0.47134
H          9.12328       -4.15800        0.62933
H          9.84971       -1.05448        2.69235
H          9.76628       -2.81903        2.75164
H          8.28211       -1.86728        2.60703
H         12.22212       -3.39691        1.27574
H         19.56576       -4.29252       -1.46238
H         23.03930       -2.71550       -1.56102
H         22.39278       -4.03256       -2.54677
H         24.05608       -4.10911       -1.93959
H         22.19551       -6.55699        0.28864
H         23.55658       -6.40487       -0.82560
H         21.89517       -6.33945       -1.44018
H         25.48492       -4.65582        0.61469
H         25.88327       -3.64346        4.35315
H         29.37601       -3.87139       -0.75017
H         31.51558       -4.56933       -1.78887
H         33.88782       -5.18660       -1.57054
H         34.94703       -5.30335        0.66750
H         33.63504       -4.83277        2.69582
H         31.49356       -4.25442        3.75953
