93

C         -1.47682        2.84696        6.73481
C         -0.63713        1.91740        7.27092
C         -0.33126        1.84717        8.65917
N         -0.06795        1.77012        9.79136
C         -0.00681        0.90544        6.49458
N          0.52702        0.07123        5.89063
C         -2.24012        3.88448        7.51051
C         -3.10786        4.53379        6.63345
C         -3.99362        5.54180        6.99987
C         -4.07095        5.88270        8.36325
C         -3.20991        5.24099        9.26386
C         -2.26198        4.26470        8.85157
S         -3.49773        5.78694       10.88092
C         -4.77528        6.77609       10.38812
C         -4.95195        6.79668        9.03189
Br        -5.85888        7.73774       11.57552
C         -3.01101        3.98981        5.27944
O         -3.73893        4.32837        4.36814
C         -1.90401        2.96818        5.30906
C         -1.46434        2.35894        4.19342
C         -1.99745        2.61832        2.89949
O         -1.49384        3.64564        2.12434
C         -2.17977        3.68346        0.95974
C         -3.11787        2.68705        0.92685
C         -2.99811        1.98685        2.15569
N         -3.79175        0.91443        2.43773
C         -3.49750       -0.16296        3.25065
C         -3.75718       -0.35997        4.54927
C         -3.54428       -1.60696        5.24176
C         -4.11214       -1.64428        6.45540
C         -4.83347       -0.42965        6.79531
S         -4.53537        0.80426        5.57945
C         -5.71859       -0.28258        7.79710
C         -6.15370       -1.32528        8.70576
C         -7.28817       -1.02672        9.35378
C         -7.80455        0.28503        9.02990
S         -6.65934        1.18136        8.06687
C         -9.02450        0.70928        9.38526
C         -9.56259        1.97037        9.00231
S        -10.46854        2.08338        7.54431
C        -10.88156        3.70869        7.84480
C        -10.35966        4.18551        9.03177
C        -10.66220        5.53692        9.58977
C         -9.52624        3.19257        9.65673
C         -8.81585        3.38770       10.88675
C         -7.56783        3.87931       10.97233
C         -6.83498        4.05859       12.21173
C         -7.37966        4.52510       13.34658
C         -6.63379        4.77709       14.55464
C         -6.74300        4.17866       15.75512
C         -7.53280        3.05417       16.28573
C         -8.75432        2.61726       15.89313
C         -9.26796        1.33934       16.24579
N         -9.66197        0.27154       16.48530
C         -9.65683        3.41917       15.14531
N        -10.45444        4.06950       14.60228
C         -6.80254        2.55019       17.49622
C         -5.72327        3.39997       17.75488
C         -5.64879        4.46618       16.74386
O         -4.83628        5.36632       16.72187
C         -4.86084        3.25954       18.84049
C         -5.10555        2.20223       19.74679
C         -6.21407        1.37411       19.52239
C         -7.07667        1.53691       18.40906
S         -6.36982        0.18197       20.76252
C         -4.97025        0.71651       21.53689
C         -4.38820        1.79533       20.92556
Br        -4.28750       -0.09431       23.08111
H         -4.63904        6.00424        6.25827
H         -1.62598        3.82636        9.60946
H         -5.70699        7.38678        8.52631
H         -0.63653        1.66563        4.18674
H         -1.89092        4.46094        0.26744
H         -3.79898        2.48531        0.11341
H         -4.37680        0.61149        1.65899
H         -3.13354       -0.99854        2.65585
H         -3.02492       -2.44258        4.79334
H         -4.08686       -2.51772        7.09066
H         -5.65926       -2.28130        8.79620
H         -7.80141       -1.70993       10.01629
H         -9.68054        0.06160        9.95878
H        -11.52197        4.23196        7.14758
H        -11.30631        6.10981        8.91404
H         -9.74591        6.10987        9.75595
H        -11.19244        5.43354       10.54292
H         -9.35200        3.10419       11.78815
H         -7.02181        4.12699       10.06120
H         -5.76712        3.85171       12.15648
H         -8.42043        4.83017       13.34168
H         -5.84053        5.51755       14.41783
H         -4.03128        3.94775       18.98341
H         -7.92759        0.87248       18.33019
H         -3.48770        2.27775       21.28610
