84

C         -1.85007        0.65119       -1.03047
C         -1.82351       -0.23648       -2.05189
C         -0.63661       -0.90056       -2.48873
N          0.31983       -1.44381       -2.85501
C         -2.97645       -0.61594       -2.80175
N         -3.89249       -0.94042       -3.43541
C         -0.66935        1.05254       -0.18925
C         -1.11330        1.87600        0.84365
C         -0.29131        2.45091        1.80827
C          1.09160        2.19580        1.72712
C          1.55928        1.37098        0.69729
C          0.69528        0.78722       -0.26781
S          3.27474        1.19210        0.77630
C          3.39543        2.20517        2.14098
C          2.16775        2.66852        2.54911
C         -2.55597        2.09477        0.76317
O         -3.18728        2.74424        1.57155
C         -3.03031        1.37664       -0.47011
C         -4.30600        1.45767       -0.88813
C         -5.38030        2.22593       -0.26815
C         -6.69038        1.94126       -0.33150
C         -7.72421        2.68432        0.35190
C         -8.93241        2.10136        0.30162
C         -8.94623        0.85274       -0.44145
S         -7.36025        0.57072       -1.16423
C         -9.95617       -0.03195       -0.54291
C        -11.25821        0.03367        0.09567
C        -11.95414       -1.11236        0.01251
C        -11.24961       -2.16347       -0.69343
S         -9.80801       -1.54325       -1.44071
C        -11.61556       -3.45317       -0.70772
C        -10.82666       -4.49519       -1.28733
S         -9.74991       -5.36402       -0.27254
C         -9.37284       -6.53950       -1.48468
C        -10.00252       -6.20235       -2.67368
C        -10.78614       -5.00095       -2.57463
S        -11.68746       -4.28417       -3.92207
C        -11.76906       -5.60807       -5.03962
O        -12.76621       -6.09029       -5.54262
C        -10.33813       -5.99140       -5.33003
O         -9.64563       -5.61103       -6.24927
S         -9.96113       -7.19268       -4.14299
C         -8.57037       -7.64535       -1.06120
C         -7.75674       -8.35768       -1.85739
C         -7.03381       -9.49093       -1.36304
S         -6.70415      -10.78691       -2.43345
C         -5.87171      -11.73527       -1.25023
C         -5.87106      -11.05545       -0.03536
C         -6.50617       -9.76880       -0.11486
O         -6.65386       -8.85742        0.88614
C         -5.72675       -9.00642        1.95753
C         -5.84293      -10.36788        2.61611
S         -5.15920      -11.61392        1.49138
C         -5.33064      -13.04313       -1.63026
S         -5.22727      -14.34492       -0.49642
C         -4.54601      -15.41738       -1.62893
C         -4.44353      -14.83968       -2.86693
C         -4.86935      -13.47621       -2.87307
O         -4.88249      -12.65493       -3.95859
C         -3.98479      -13.04912       -4.99851
C         -4.27449      -14.44311       -5.53883
S         -3.85390      -15.69075       -4.28645
H         -0.70815        3.08998        2.58214
H          1.14453        0.17242       -1.03714
H          4.36067        2.41488        2.58133
H          2.03833        3.32797        3.39912
H         -4.63135        0.92211       -1.77282
H         -5.08570        3.09471        0.31586
H         -7.52009        3.60747        0.87775
H         -9.80702        2.51432        0.78387
H        -11.61441        0.90395        0.62954
H        -12.92361       -1.26278        0.47028
H        -12.51508       -3.76512       -0.18462
H         -8.65487       -7.91400       -0.00995
H         -7.63321       -8.11613       -2.90811
H         -5.98572       -8.23561        2.69191
H         -4.70985       -8.77953        1.61183
H         -5.27817      -10.39344        3.55192
H         -6.88914      -10.61359        2.82917
H         -4.28112      -16.42453       -1.33701
H         -4.12693      -12.32732       -5.81090
H         -2.94767      -12.93477       -4.65797
H         -3.67614      -14.63846       -6.43360
H         -5.33365      -14.55048       -5.79500
