119

C         -0.06351        0.39249       -0.91672
C          1.14023        0.62865       -1.49549
C          2.08604       -0.40730       -1.73313
N          2.85958       -1.25305       -1.92248
C          1.51817        1.91359       -1.97194
N          1.82157        2.96918       -2.35879
C         -0.63474       -0.92992       -0.52444
C         -2.02089       -0.78841       -0.41087
C         -2.88007       -1.80992       -0.02505
C         -2.30853       -3.06441        0.28026
C         -0.91728       -3.21747        0.16785
C         -0.05871       -2.15893       -0.22894
S         -0.43690       -4.82615        0.58139
C         -2.02675       -5.28667        0.91070
C         -2.93378       -4.27760        0.73037
Br        -2.50074       -7.01040        1.47023
C         -2.42592        0.60104       -0.66909
O         -3.56535        0.98341       -0.82147
C         -1.14273        1.37715       -0.72179
C         -1.04576        2.67688       -0.40446
C         -2.17339        3.53728       -0.05046
C         -2.83758        4.26111       -1.04762
C         -3.86719        5.10365       -0.66194
C         -4.24400        5.21048        0.69630
C         -3.59824        4.48595        1.68174
C         -2.55277        3.64658        1.30263
C         -5.30950        6.17369        0.81813
C         -5.60354        6.70024       -0.45481
C         -4.72658        6.03591       -1.51964
C         -3.87926        7.10389       -2.27140
C         -2.93199        7.94433       -1.41112
C         -5.60941        5.25539       -2.53663
C         -6.47532        4.13244       -1.95907
C         -6.54819        7.70012       -0.61870
C         -7.20343        8.18559        0.51624
C         -6.94723        7.60815        1.77925
C         -5.98867        6.60800        1.93854
C         -8.14993        9.29024        0.34551
C         -8.34700       10.21432        1.29613
C         -9.27930       11.25917        1.09434
S        -10.90320       10.97827        1.53803
C        -11.41724       12.54176        1.03671
C        -10.32882       13.29047        0.61790
C         -9.10663       12.54909        0.63116
S         -7.54914       13.20536        0.10652
C         -7.87517       14.90791        0.17797
O         -7.30111       15.74918        0.83785
C         -8.98550       15.14451       -0.82210
O         -8.86390       15.46758       -1.98534
S        -10.45396       14.97511        0.08289
C        -12.79018       12.91598        1.11576
C        -13.77452       12.02720        0.90797
C        -15.12598       12.42398        1.01202
S        -15.85182       12.33179        2.55029
C        -17.39435       12.88686        2.00200
C        -17.33719       13.12912        0.63729
C        -16.03807       12.84575        0.07146
C        -15.72447       12.98000       -1.28610
C        -16.80959       13.45459       -2.06129
C        -16.61206       13.63436       -3.54518
C        -18.09987       13.73724       -1.49737
C        -18.42234       13.58504       -0.12775
C        -18.47598       13.02647        2.92260
C        -18.37658       12.74322        4.23265
C        -19.45038       12.91321        5.16919
C        -20.76041       12.78048        4.85937
C        -21.48725       13.07692        6.05738
C        -22.80973       13.19271        6.24817
C        -23.20708       13.62158        7.56654
C        -24.42237       13.93724        8.04093
C        -24.30389       14.39352        9.43381
C        -23.01343       14.28585        9.82738
C        -22.26616       13.84588        8.67482
C        -20.94366       13.68459        8.49133
C        -20.53737       13.32931        7.14775
C        -19.31702       13.20503        6.60505
C        -25.36886       14.85610       10.28593
C        -26.45892       15.47888        9.81870
H         -3.94813       -1.63134        0.06562
H          1.01024       -2.33736       -0.26243
H         -3.99825       -4.38329        0.90380
H         -0.09010        3.18322       -0.30514
H         -2.55130        4.17282       -2.09029
H         -3.88243        4.57552        2.72433
H         -2.03055        3.08236        2.07127
H         -4.55197        7.79804       -2.79310
H         -3.27930        6.61859       -3.05165
H         -3.45099        8.44217       -0.58668
H         -2.47224        8.72726       -2.02457
H         -2.12150        7.33820       -0.99559
H         -4.97536        4.81726       -3.31813
H         -6.28010        5.96018       -3.04656
H         -5.86522        3.28010       -1.64446
H         -7.17183        3.77051       -2.72354
H         -7.07477        4.46377       -1.10620
H         -6.74351        8.11451       -1.60296
H         -7.48627        7.94214        2.66229
H         -5.78153        6.19868        2.92076
H         -8.66194        9.34505       -0.61307
H         -7.82728       10.18414        2.24874
H        -13.02606       13.95934        1.31812
H        -13.59089       10.97747        0.70520
H        -14.75838       12.74887       -1.71587
H        -15.54841       13.61421       -3.80632
H        -17.01012       14.60020       -3.87220
H        -17.11494       12.82970       -4.09014
H        -18.88853       14.09135       -2.16466
H        -19.41256       13.80529        0.24850
H        -19.41680       13.40004        2.52941
H        -17.45261       12.39676        4.68711
H        -21.19425       12.54865        3.90171
H        -23.53738       13.03875        5.46355
H        -25.34981       13.89965        7.49299
H        -22.58826       14.54058       10.78373
H        -20.20761       13.85789        9.26468
H        -18.37210       13.34448        7.10708
H        -25.25500       14.70155       11.35553
H        -26.59624       15.68169        8.76035
H        -27.23506       15.82186       10.49293
