109

C          2.04152        3.70659       -0.80301
C          3.09503        3.93307        0.01362
C          4.41344        4.06163       -0.51193
N          5.48590        4.08873       -0.95578
C          2.97496        3.82853        1.42962
N          2.84613        3.71756        2.57947
C          2.09374        3.58665       -2.26877
C          1.26581        2.51922       -2.64055
C          1.12976        2.11323       -3.95355
C          1.74340        2.89596       -4.94536
C          2.45640        4.08013       -4.58553
C          2.65875        4.40120       -3.23323
C          2.92505        4.93145       -5.59592
C          2.74526        4.60563       -6.94011
C          2.11705        3.41375       -7.29087
C          1.61668        2.56546       -6.30119
C          0.45034        2.09986       -1.47175
O         -0.35564        1.19679       -1.41522
C          0.76500        3.11950       -0.41164
C         -0.18207        3.50921        0.45026
C         -0.10088        4.81222        1.14921
N          0.48436        5.86666        0.62646
C          0.17457        6.85856        1.49845
C         -0.62404        6.34407        2.57805
C         -0.98487        7.46247        3.48605
O         -1.66182        7.44136        4.48910
C         -0.33810        8.62425        2.82724
C          0.33549        8.17024        1.63654
N          0.90874        9.22045        0.99484
C          0.60086       10.22942        1.76330
C         -0.20064        9.93587        2.97186
C         -0.81749        5.03612        2.44837
C         -1.58699        4.15334        3.27044
C         -1.41660        2.82640        3.33556
C         -2.23184        1.94644        4.11099
S         -1.45376        0.50568        4.66807
C         -2.84039       -0.06302        5.48655
C         -3.92479        0.76791        5.24696
C         -3.56191        1.97382        4.52942
C         -4.42500        3.11530        4.36552
C         -5.27242        3.34786        3.35265
O         -5.12826        0.44475        5.79602
C         -6.25138        0.74117        4.97434
C         -2.70619       -1.19307        6.34937
C         -2.79704       -2.46396        5.92275
C         -2.63640       -3.55817        6.92082
N         -2.97156       -3.42289        8.18454
C         -2.70936       -4.63940        8.72002
C         -2.20747       -5.53880        7.71796
C         -1.90418       -6.84896        8.35633
O         -1.46287       -7.86159        7.86088
C         -2.26975       -6.59963        9.77459
C         -2.76042       -5.25043        9.89821
N         -3.10188       -4.99213       11.18635
C         -2.81879       -6.11311       11.78870
C         -2.26824       -7.20470       10.95565
C         -2.13166       -4.93109        6.53794
C         -1.68526       -5.47831        5.29425
C         -1.09936       -4.74888        4.34029
C         -0.63228       -5.27697        3.08291
C          0.54113       -4.94489        2.52451
C          1.10977       -5.26598        1.19711
C          0.74111       -6.27011        0.36733
C          1.40330       -6.53580       -0.85472
N          1.94327       -6.75966       -1.86340
C         -0.32844       -7.16635        0.64831
N         -1.20031       -7.90118        0.87189
C          2.28389       -4.35414        1.01716
C          2.54363       -3.70706        2.23061
C          1.52433       -4.03981        3.22041
O          1.51772       -3.62649        4.36161
C          3.59958       -2.83376        2.44262
C          4.44515       -2.56085        1.36930
C          4.17974       -3.15099        0.10201
C          3.09290       -4.03809       -0.06416
C          5.01999       -2.84060       -0.97485
C          6.11030       -1.98533       -0.80706
C          6.37639       -1.42461        0.43909
C          5.54567       -1.70611        1.52250
H          0.50386        1.26159       -4.20180
H          3.19257        5.30647       -2.95411
H          3.41916        5.86880       -5.34620
H          3.09976        5.28243       -7.71374
H          1.99972        3.15155       -8.33930
H          1.11231        1.64964       -6.60197
H         -1.12530        2.97486        0.51364
H          0.89670       11.26965        1.55973
H         -0.56584       10.61502        3.71596
H         -2.32619        4.64479        3.89871
H         -0.58876        2.36382        2.80224
H         -4.39592        3.84473        5.17464
H         -5.39511        2.66270        2.52094
H         -5.90716        4.23112        3.36624
H         -7.02123       -0.01279        5.16023
H         -6.02542        0.70570        3.90225
H         -6.67028        1.71201        5.25757
H         -2.49626       -0.97259        7.39436
H         -2.99773       -2.71737        4.89085
H         -2.96600       -6.28419       12.86541
H         -1.95555       -8.18381       11.25766
H         -1.76054       -6.56138        5.18094
H         -0.90406       -3.69243        4.50728
H         -1.35959       -5.90945        2.58541
H          3.74361       -2.37932        3.41988
H          2.91366       -4.44776       -1.05226
H          4.83834       -3.27053       -1.95785
H          6.75696       -1.76193       -1.65184
H          7.23260       -0.76710        0.56806
H          5.76916       -1.25662        2.48850
