82

C          1.64615        1.77302       -3.34748
C          1.28349        0.98598       -4.43003
C         -0.01945        0.45867       -4.22565
C         -0.53193        0.87765       -3.02957
S          0.44857        1.88613       -2.09932
C         -1.79311        0.42459       -2.71991
C         -2.38511       -0.38753       -3.64041
S         -1.24230       -0.53951       -4.92551
C         -3.67548       -0.78866       -3.20602
C         -3.97247       -0.23774       -1.95889
S         -2.68327        0.75951       -1.33396
C         -5.19227       -0.41865       -1.18939
C         -5.51647        0.12998        0.05631
C         -6.79631       -0.28062        0.48498
C         -7.38992       -1.11109       -0.43638
S         -6.48502       -1.42226       -1.78836
C         -8.66076       -1.48804        0.03825
C         -8.87378       -0.89736        1.26164
C         -7.70176       -0.09521        1.62027
C         -7.50277        0.63902        2.73231
C         -8.48678        0.71905        3.75724
N         -9.28679        0.78297        4.59412
C         -6.30108        1.37095        2.94091
N         -5.32124        1.96716        3.11004
C        -10.13883       -1.24245        1.78367
C        -10.83787       -2.09206        0.91844
S         -9.90392       -2.43522       -0.51191
C        -12.16158       -2.66194        1.09628
C        -12.85933       -3.51085        0.22971
C        -14.12605       -3.85456        0.74983
C        -14.34330       -3.26412        1.97312
S        -13.09803       -2.31954        2.52540
C        -15.61817       -3.63903        2.44329
C        -16.20873       -4.47000        1.51808
C        -15.29805       -4.65409        0.38634
C        -15.49449       -5.38315       -0.73170
C        -16.69691       -6.10722       -0.94726
N        -17.68193       -6.69445       -1.12156
C        -14.50955       -5.46453       -1.75438
N        -13.70532       -5.52838       -2.58852
C        -17.49213       -4.88073        1.94076
C        -17.82096       -4.32477        3.18044
S        -16.53585       -3.32262        3.78907
C        -19.04069       -4.50473        3.93958
C        -19.64172       -3.60202        4.82140
C        -20.82769       -4.13435        5.37159
C        -21.07307       -5.40484        4.90171
S        -19.94935       -5.98397        3.82640
C        -22.26726       -5.88196        5.47925
C        -22.77897       -4.91386        6.31177
C        -21.89615       -3.74721        6.29587
C        -22.03721       -2.58960        6.97079
C        -23.13887       -2.35766        7.83958
N        -24.03806       -2.16695        8.54811
C        -21.09127       -1.53568        6.84937
N        -20.31772       -0.67693        6.74541
C        -23.98490       -5.33268        6.91199
C        -24.34098       -6.62173        6.50287
S        -23.16535       -7.27218        5.39045
C        -25.51131       -7.39308        6.89049
C        -25.84972       -8.67705        6.46288
C        -27.07324       -9.09786        7.04572
C        -27.57930       -8.13456        7.86635
S        -26.67856       -6.72134        8.00340
C        -28.77323       -8.42848        8.48418
C        -29.31063       -9.65358        8.20140
S        -28.20188      -10.40226        7.11055
C        -30.53946       -9.83942        8.88858
C        -30.82778       -8.71443        9.64606
S        -29.64694       -7.44863        9.54273
H          2.57703        2.30690       -3.21146
H          1.90805        0.80636       -5.29475
H         -4.33167       -1.43638       -3.77348
H         -4.84655        0.78476        0.60034
H        -10.54326       -0.90659        2.73067
H        -12.45304       -3.84626       -0.71696
H        -18.16567       -5.53134        1.39566
H        -19.23002       -2.62050        5.02378
H        -24.58379       -4.75064        7.60179
H        -25.26875       -9.27805        5.77517
H        -31.16445      -10.72091        8.83477
H        -31.69309       -8.55652       10.27585
