126

C          4.23401        4.09400       -5.93043
C          3.25936        4.90875       -6.48798
F          2.87035        4.69477       -7.75159
C          2.70607        5.95861       -5.76762
C          3.09300        6.17149       -4.44054
C          4.07355        5.36371       -3.84209
C          4.68452        4.33964       -4.62947
C          5.77966        3.62656       -4.13168
C          6.27294        3.96364       -2.88470
C          5.56029        4.83075       -2.04242
C          4.47801        5.55788       -2.50547
C          6.16361        4.80158       -0.67871
O          5.77595        5.39072        0.30806
C          7.30868        3.82153       -0.77891
C          7.54508        3.66001       -2.21384
C          8.74877        3.69918       -2.83461
C          9.95072        3.93550       -2.09538
N         10.90178        4.18780       -1.49485
C          8.88064        3.65979       -4.24806
N          8.96243        3.60387       -5.40834
C          7.75914        3.11881        0.27615
C          8.56764        1.93098        0.18734
S          8.42154        0.78562       -1.11903
C          9.65913       -0.26763       -0.54695
C         10.03278        0.13632        0.71312
C          9.44134        1.35824        1.06195
C          9.90945        1.73523        2.35179
C         10.76076        0.78235        2.94084
C         11.35168        0.81727        4.26787
O         11.65606       -0.14357        4.95984
O         11.45851        2.11854        4.65326
C         11.70824        2.31391        6.04174
S         11.11655       -0.60831        1.96179
C         10.11958       -1.41230       -1.31234
C          9.71933       -1.81228       -2.57107
C         10.29146       -3.06844       -3.04176
C         10.03514       -3.85767       -4.19896
C          8.98760       -3.43496       -5.18468
C          8.98084       -3.51345       -6.57410
C          7.83011       -2.93106       -7.18276
C          6.99633       -2.35007       -6.25698
S          7.46070       -2.79599       -4.67425
C          5.81701       -1.46429       -6.48796
Cl         7.60571       -2.91097       -8.87926
C         10.77972       -5.04647       -4.42150
C         11.81866       -5.44387       -3.56001
C         12.09948       -4.63581       -2.41374
C         11.28972       -3.49862       -2.15503
S         11.30372       -2.48721       -0.76160
C         13.25081       -4.95743       -1.48847
C         14.07734       -4.11396       -0.74554
C         15.10045       -4.78468       -0.00750
C         15.08291       -6.14126       -0.21823
S         13.71218       -6.58633       -1.12881
C         16.01951       -7.18879        0.28621
Cl        16.20983       -3.94545        0.99121
C         12.42138       -6.66234       -4.05451
C         11.85469       -7.18986       -5.18937
S         10.57447       -6.21106       -5.70189
C         12.22084       -8.37749       -5.89240
C         11.61166       -9.53119       -5.55125
C         11.93002      -10.77048       -6.20928
C         12.90498      -10.83839       -7.30919
C         13.61615       -9.80512       -7.75799
S         13.49316       -8.20511       -7.08868
C         12.92874      -12.17787       -7.74181
C         12.06485      -12.92332       -6.97669
C         12.00110      -14.26638       -7.37680
C         12.86312      -14.48821       -8.44247
S         13.70611      -13.05352       -8.93265
C         11.45329      -12.03551       -6.01077
C         10.48694      -12.44188       -5.01165
C         10.76276      -13.33918       -4.05069
C          9.81490      -13.76648       -3.03620
C         10.04620      -14.65672       -2.05769
C          9.08720      -14.79708       -0.90340
O          7.92755      -14.44898       -0.85173
C          9.87827      -15.40613        0.19171
C          9.44398      -15.72735        1.46644
C         10.37224      -16.28898        2.35830
C         11.74058      -16.41485        1.97182
C         12.66841      -16.94412        2.87754
C         12.24458      -17.39800        4.11982
C         10.91023      -17.32056        4.49453
C          9.97789      -16.75158        3.62404
F         13.13630      -17.93828        4.96018
C         12.14613      -16.06070        0.67523
C         11.19333      -15.63858       -0.23681
C         11.22391      -15.45760       -1.70936
C         11.93656      -16.25869       -2.53874
C         11.55498      -16.46032       -3.89677
N         11.22692      -16.68295       -4.98175
C         12.99008      -17.09863       -2.09037
N         13.86645      -17.77592       -1.71831
H          4.65723        3.29920       -6.53871
H          1.97897        6.60733       -6.24587
H          2.64696        6.99907       -3.89236
H          6.26862        2.87267       -4.74428
H          3.98898        6.28177       -1.85973
H          7.42636        3.40883        1.27246
H          9.62048        2.64201        2.87170
H         12.77607        2.23237        6.26162
H         11.12806        1.61383        6.65076
H         11.37240        3.32586        6.28104
H          8.99004       -1.24596       -3.13071
H          9.78157       -3.94695       -7.15912
H          6.16046       -0.47021       -6.80087
H          5.20777       -1.33374       -5.58821
H          5.17066       -1.85999       -7.27740
H         13.97965       -3.03662       -0.71521
H         17.05227       -6.82256        0.30520
H         16.01075       -8.08309       -0.34715
H         15.74214       -7.48591        1.30203
H         13.24969       -7.18492       -3.59557
H         10.84836       -9.55062       -4.77875
H         14.32387       -9.93635       -8.57065
H         11.37261      -15.03512       -6.94928
H         13.03665      -15.41559       -8.97153
H          9.50939      -11.96988       -5.07667
H         11.77120      -13.74242       -4.01144
H          8.85041      -13.25533       -3.04489
H          8.40372      -15.57570        1.74328
H         13.72022      -17.04106        2.62108
H         10.60318      -17.70830        5.46082
H          8.93589      -16.69869        3.93301
H         13.19010      -16.17189        0.39442
