87

C          2.91432        2.34619        0.52525
C          2.97476        2.01942        1.98443
C          3.66804        0.89411        2.69514
N          4.18589        0.02573        3.28424
C          1.83868        2.20064        2.88467
N          1.03109        2.23746        3.71863
C          3.90738        2.21526       -0.76130
C          4.41400        0.98117       -0.67558
C          5.23684        0.23641       -1.49981
C          5.23205        0.52602       -2.81012
C          4.32668        1.53275       -3.23589
C          3.66118        2.40232       -2.22890
C          4.01288        1.49262       -4.60700
C          4.64334        0.55545       -5.47122
C          5.61434       -0.34478       -5.00046
C          5.90053       -0.36902       -3.65637
C          3.36982        0.24706       -0.04405
O          4.01227       -0.45687        0.74406
C          2.15981        1.39496        0.16882
C          1.04709        2.00212       -0.61060
C          0.23610        3.50758       -0.52139
C          0.09267        4.21138        0.73806
C         -0.55888        5.49614        0.96333
C         -1.16712        6.23931       -0.05366
C         -1.08633        5.59577       -1.32456
C         -0.46151        4.31935       -1.57028
N         -0.59681        3.98484       -2.87718
Se        -1.53362        5.17111       -3.87902
N         -1.60166        6.17438       -2.42500
C         -1.93256        7.59569        0.17812
C         -2.98612        7.87470       -0.71339
C         -3.71976        9.00879       -0.70990
C         -3.53352       10.00724        0.22574
C         -2.54015        9.79104        1.19282
C         -1.75186        8.62858        1.18819
N         -0.83679        8.63067        2.17759
Se        -0.92141       10.11718        3.20477
N         -2.26348       10.66129        2.17554
C         -4.32092       11.24522        0.07242
C         -3.80072       12.47745        0.51988
C         -4.46858       13.65634        0.24320
C         -5.67988       13.62420       -0.47662
C         -6.16825       12.42097       -0.92855
C         -5.54688       11.26214       -0.64217
N         -6.20871       10.19535       -1.12364
Se        -7.64994       10.60320       -2.07729
N         -7.22953       12.29505       -1.72987
C         -6.34454       14.86852       -0.76984
C         -7.65415       15.19366       -0.93620
C         -8.00887       16.58017       -1.28419
C         -7.30631       17.76340       -1.16325
C         -8.01606       19.02104       -1.20716
N         -8.66398       19.97852       -1.26235
C         -5.94841       17.88792       -0.71971
N         -4.85180       17.97061       -0.36191
C         -9.40951       16.51507       -1.64519
C        -10.06250       15.41198       -1.18884
C         -9.01505       14.46995       -0.83614
O         -9.25732       13.27621       -0.79613
C        -11.47751       15.31387       -1.25357
C        -12.16061       16.34147       -1.96730
C        -11.38396       17.31168       -2.65425
C        -10.03248       17.39620       -2.46117
C        -11.94946       18.23292       -3.51288
C        -13.31907       18.30888       -3.62522
C        -14.13089       17.44505       -2.88183
C        -13.56226       16.43395       -2.07794
H          5.58727       -0.75278       -1.21126
H          2.83368        3.00412       -2.61095
H          3.23797        2.13396       -4.98968
H          4.35876        0.50816       -6.50697
H          6.09793       -1.07596       -5.64152
H          6.57711       -1.13404       -3.25246
H          0.83856        1.43950       -1.51568
H          0.45204        3.74127        1.61646
H         -0.62785        5.90102        1.96359
H         -3.33830        7.24552       -1.48215
H         -4.40080        9.04936       -1.53178
H         -2.86566       12.57687        1.04179
H         -4.02012       14.58534        0.58977
H         -5.60222       15.62090       -0.87208
H        -12.01706       14.47702       -0.81236
H         -9.44674       18.14084       -2.96489
H        -11.31149       18.90493       -4.07791
H        -13.73261       19.06339       -4.27616
H        -15.20096       17.56009       -2.95500
H        -14.21710       15.75652       -1.54405
