129

C          4.39093       -0.45661       -0.34360
O          3.93899       -1.69220       -0.62808
C          3.67428       -2.34159        0.55334
C          4.02362       -1.48187        1.59797
C          4.44989       -0.25240        1.01500
C          4.88243        0.99479        1.67087
F          5.18053        1.95735        0.75326
F          3.92850        1.52269        2.47754
F          6.00105        0.82625        2.42006
O          3.91659       -1.67983        2.93807
C          4.08951       -3.02205        3.38519
C          3.13931       -3.65019        0.53764
C          1.81019       -3.82867        0.56212
C          1.14750       -5.14156        0.59043
C          1.85360       -6.35589        0.49181
C          1.16239       -7.55044        0.60911
C         -0.23104       -7.54302        0.82004
C         -0.94992       -6.36192        0.86911
C         -0.25411       -5.16020        0.75526
C         -0.69216       -8.89638        0.97365
C          0.40514       -9.77319        0.84538
C          1.69824       -8.99728        0.57950
C          2.74189       -9.19075        1.72449
C          3.25959      -10.61167        1.95713
C          2.30486       -9.37900       -0.79804
C          1.41263       -9.14295       -2.01667
C          0.21947      -11.13809        0.92641
C         -1.06399      -11.61267        1.19595
C         -2.15468      -10.74180        1.33611
C         -1.97184       -9.36852        1.21236
C         -1.24642      -13.04276        1.34111
C         -1.14345      -13.63038        2.54182
C         -1.27177      -15.03709        2.66534
C         -1.47583      -15.98508        1.69404
C         -1.66453      -17.33019        2.15969
C         -1.90443      -18.53831        1.45132
C         -1.94482      -18.54714       -0.05597
C         -1.48135      -19.48743       -0.97358
C         -1.67486      -19.11972       -2.34071
C         -2.24071      -17.87424       -2.46793
S         -2.75410      -17.29771       -0.94688
C         -2.49694      -17.08014       -3.70711
Cl        -1.21052      -20.13691       -3.63719
C         -2.08868      -19.73573        2.17919
C         -2.11412      -19.75684        3.58409
C         -1.85183      -18.54996        4.28806
C         -1.59162      -17.36155        3.56259
S         -1.10690      -15.80159        4.16340
C         -1.80839      -18.57282        5.78662
C         -1.34704      -19.55497        6.65756
C         -1.41600      -19.18598        8.03560
C         -1.85985      -17.89615        8.20471
S         -2.46918      -17.28128        6.73474
C         -1.90693      -17.07380        9.45014
Cl        -0.93122      -20.24213        9.29170
C         -2.45668      -21.08298        4.05823
C         -2.51931      -22.04346        3.07584
S         -2.32755      -21.32233        1.55645
C         -2.73338      -23.46382        3.24159
C         -2.90125      -24.16352        4.44115
C         -3.06712      -25.54553        4.20918
C         -3.00827      -25.83136        2.86798
S         -2.78689      -24.53625        1.87017
C         -3.15282      -27.21336        2.68318
C         -3.31802      -27.81921        3.90512
C         -3.27147      -26.79078        4.95332
C         -3.39079      -26.94545        6.29017
C         -3.32644      -25.83364        7.17690
N         -3.27878      -24.91779        7.88990
C         -3.59626      -28.22399        6.86144
N         -3.76049      -29.27220        7.35072
C         -3.47383      -29.21586        3.74504
C         -3.46043      -29.58167        2.39047
S         -3.11636      -28.22722        1.38069
C         -3.63712      -30.91927        1.87295
O         -3.31671      -31.98020        2.67460
C         -3.59304      -33.18464        2.06229
C         -4.14040      -32.85585        0.82068
C         -4.13674      -31.42259        0.68000
C         -4.67962      -30.75574       -0.53438
F         -4.57487      -29.40737       -0.56049
F         -4.05728      -31.19261       -1.66363
F         -6.00571      -31.01600       -0.69671
O         -4.71010      -33.60242       -0.16011
C         -4.72177      -35.00527       -0.02851
C         -3.37168      -34.37445        2.81700
C         -2.84208      -35.51167        2.35531
H          4.61987        0.16455       -1.19920
H          4.04787       -3.02161        4.47936
H          5.06597       -3.41933        3.08651
H          3.27991       -3.67691        3.05605
H          3.84999       -4.46386        0.49920
H          1.15400       -2.95986        0.60326
H          2.92661       -6.38338        0.34413
H         -2.02563       -6.36081        1.00834
H         -0.81893       -4.23164        0.81526
H          2.32758       -8.83143        2.67622
H          3.61634       -8.55829        1.51964
H          2.48924      -11.25511        2.39035
H          4.08534      -10.59923        2.67634
H          3.63237      -11.07566        1.04012
H          2.56585      -10.44436       -0.79869
H          3.24339       -8.83217       -0.95572
H          0.40486       -9.54519       -1.88034
H          1.84512       -9.64244       -2.89054
H          1.33447       -8.07741       -2.25120
H          1.04537      -11.82940        0.79507
H         -3.14757      -11.13606        1.53708
H         -2.81546       -8.69446        1.30849
H         -1.42118      -13.57148        0.41138
H         -0.95941      -13.03415        3.43400
H         -1.51998      -15.69569        0.65808
H         -1.00729      -20.42025       -0.69954
H         -1.59209      -17.02086       -4.32397
H         -2.80122      -16.05132       -3.48551
H         -3.28671      -17.54732       -4.30306
H         -0.94716      -20.50727        6.33555
H         -2.64304      -17.47572       10.15223
H         -2.16120      -16.02734        9.24893
H         -0.92699      -17.07460        9.94296
H         -2.62239      -21.32201        5.09963
H         -2.88985      -23.67849        5.40912
H         -3.61317      -29.94268        4.53720
H         -5.34002      -35.41600       -0.83221
H         -5.16682      -35.33258        0.91479
H         -3.72009      -35.39964       -0.19948
H         -3.59277      -34.30892        3.88014
H         -2.48739      -35.64437        1.34299
H         -2.73818      -36.36974        3.01371
