78

C          2.55887        2.92043        4.03243
O          1.91998        2.36164        5.09082
C          2.81031        2.33286        6.11561
C          4.01449        2.87224        5.72455
C          3.85327        3.25522        4.36771
C          4.82847        3.84963        3.51441
C          4.64976        4.11690        2.20939
C          5.69120        4.65414        1.37034
C          5.68475        4.53497        0.03201
C          6.77423        5.01088       -0.80447
C          7.21102        4.43309       -1.96004
O          8.29944        4.96854       -2.67722
C          8.88590        6.06353       -2.13977
C          8.42231        6.65621       -0.95325
C          9.14700        7.75272       -0.56524
S         10.42007        8.05765       -1.68148
C          9.97613        6.71009       -2.66208
O          7.36607        6.16903       -0.27745
C          6.67182        3.19459       -2.53165
C          7.12546        2.55548       -3.63138
C          6.58118        1.30617       -4.10874
S          4.86783        1.02341       -3.89743
C          4.90793       -0.58757       -4.47267
C          6.20257       -0.93279       -4.78622
C          7.14841        0.19501       -4.74549
C          8.48457        0.04856       -5.22084
C          9.58504        1.03752       -5.50878
F          9.22845        2.34352       -5.55041
F         10.61268        0.94501       -4.62042
F         10.15037        0.80608       -6.73452
C          8.78277       -1.31819       -5.55046
C          7.86631       -2.40117       -5.51430
C          6.51948       -2.24018       -5.17735
C          3.68976       -1.33351       -4.53764
C          2.83696       -1.24233       -5.56904
C          1.54057       -1.88532       -5.62282
C          0.73080       -1.36589       -6.55994
C          1.33484       -0.25676       -7.28014
S          3.07208       -0.24897       -6.98795
C          0.68174        0.74045       -7.90486
C         -0.75757        0.88766       -8.03102
C         -1.14337        2.15540       -8.24913
C         -0.03067        3.08404       -8.31044
S          1.47529        2.21170       -8.46317
C         -0.14756        4.40751       -8.14705
C          0.96835        5.26660       -8.04141
S          1.69507        5.73371       -6.53857
C          2.89268        6.74100       -7.30680
C          2.67963        6.68580       -8.63864
C          1.64322        5.87115       -9.03761
O          1.40551        5.77291      -10.37602
C          2.39947        6.61711      -10.82821
N          2.44050        6.78076      -12.24289
O          2.48606        7.94571      -12.65863
O          2.46571        5.75227      -12.93045
C          3.18587        7.21465       -9.83706
H          1.97255        3.00447        3.12897
H          2.44038        1.90650        7.03693
H          4.89544        2.96541        6.34378
H          5.80409        4.04932        3.96004
H          3.70069        3.89879        1.72467
H          6.52977        5.13421        1.87292
H          4.86452        4.02044       -0.46086
H          9.00168        8.38209        0.30196
H         10.53729        6.47399       -3.55411
H          5.84851        2.75692       -1.97561
H          7.95953        2.99660       -4.15375
H          9.79967       -1.55292       -5.88235
H          8.22340       -3.39323       -5.79183
H          5.82240       -3.06872       -5.20500
H          3.44294       -1.95074       -3.67954
H          1.24166       -2.66214       -4.93301
H         -0.29342       -1.67816       -6.70200
H         -1.45101        0.06896       -7.90314
H         -2.17517        2.47147       -8.31167
H         -1.12915        4.85542       -8.01881
H          3.63089        7.27715       -6.72619
H          3.99615        7.91270       -9.99131
