80

C          0.73263       -3.80876       -0.94281
C          0.01352       -3.67318        0.24107
C         -1.15964       -2.90113        0.25230
N         -1.86086       -2.80539        1.52187
O         -2.25727       -3.86606        2.02320
O         -1.96401       -1.68308        2.03338
C         -1.64981       -2.26671       -0.90365
C         -0.88662       -2.40890       -2.07749
C          0.28478       -3.17527       -2.09857
C         -2.87353       -1.44317       -0.92861
C         -3.71025       -1.37267       -1.97669
C         -4.85355       -0.52886       -1.93257
S         -5.86787       -0.39536       -3.32089
C         -6.85858        0.70119       -2.42973
N         -6.41236        0.92207       -1.20871
N         -5.26668        0.21477       -0.92424
C         -8.02165        1.23255       -3.04368
C         -8.77983        2.14800       -2.42025
C         -9.99386        2.68692       -2.97323
N        -11.10971        3.04233       -2.20658
C        -11.24744        2.94456       -0.76274
C        -11.49486        4.29992       -0.11273
C        -12.18434        3.46333       -3.02095
O        -13.32175        3.77191       -2.72629
C        -11.60539        3.42097       -4.37107
C        -10.25905        2.93337       -4.26417
C         -9.69371        2.87287       -5.62353
O         -8.59618        2.46938       -5.95025
N        -10.74392        3.36832       -6.42035
C        -10.64073        3.45326       -7.86364
C        -11.14425        2.19765       -8.55736
C        -11.87223        3.65520       -5.65656
C        -13.09150        4.14207       -6.22723
C        -14.29165        3.60245       -5.96975
C        -15.45102        4.11908       -6.60015
S        -17.00720        3.74091       -5.96786
C        -17.69232        4.70221       -7.22785
N        -16.78579        5.22292       -8.03097
N        -15.50083        4.89310       -7.66759
C        -19.10286        4.84267       -7.29587
C        -19.68010        5.57083       -8.26494
C        -21.13365        5.74071       -8.38224
C        -21.96844        5.73771       -7.26399
C        -23.35332        5.89784       -7.42075
N        -24.12398        5.89102       -6.19534
O        -24.14488        4.83362       -5.55263
O        -24.65837        6.95493       -5.85118
C        -23.95691        6.06767       -8.67325
C        -23.09362        6.11549       -9.78283
C        -21.70531        5.95549       -9.63995
C        -25.39369        6.25119       -8.94313
C        -26.40376        5.67333       -8.28012
H          1.64400       -4.40174       -0.96482
H          0.36640       -4.16350        1.14615
H         -1.18512       -1.91496       -3.00071
H          0.84866       -3.27129       -3.02430
H         -3.08708       -0.85804       -0.03364
H         -3.53372       -1.94904       -2.87973
H         -8.28657        0.86523       -4.02945
H         -8.48934        2.50248       -1.43084
H        -10.35889        2.49047       -0.31815
H        -12.09424        2.28210       -0.55182
H        -10.70925        5.01510       -0.37674
H        -11.52056        4.20013        0.97681
H        -12.45275        4.72517       -0.42843
H         -9.58589        3.59990       -8.12354
H        -11.18344        4.33486       -8.21946
H        -10.58982        1.31438       -8.22406
H        -11.02095        2.29033       -9.64085
H        -12.20490        2.02506       -8.34936
H        -13.00182        4.98457       -6.91143
H        -14.39712        2.76713       -5.28299
H        -19.69731        4.33429       -6.54335
H        -19.07329        6.05508       -9.02948
H        -21.55880        5.62329       -6.26264
H        -23.49116        6.26669      -10.78620
H        -21.07930        5.98850      -10.53087
H        -25.63842        6.90490       -9.78022
H        -26.27070        4.98539       -7.45207
H        -27.43212        5.88694       -8.55863
