83

C         -1.89747       -1.29152       -5.11027
C         -3.12722       -0.69329       -5.02076
S         -4.25480       -1.74328       -4.22786
C         -3.08137       -2.96065       -4.02373
Cl        -3.50138       -4.42155       -3.23391
C         -1.87769       -2.58801       -4.54086
C         -0.59445       -3.21965       -4.62427
O         -0.29763       -4.34226       -4.26919
C          0.27563       -2.13433       -5.27089
C         -0.59404       -0.95606       -5.63798
C         -0.27101        0.15248       -6.34886
C         -1.22245        1.17010       -6.63133
N         -2.00126        1.99969       -6.86146
C          1.02326        0.38660       -6.89230
N          2.07863        0.57768       -7.33504
C          1.61198       -2.26009       -5.35010
C          2.40380       -3.39037       -4.93510
C          3.39718       -3.30505       -4.02408
C          4.00855       -4.63074       -3.87442
C          3.27722       -5.50492       -4.80768
C          2.34520       -4.75833       -5.41977
C          3.45060       -6.88247       -5.07379
N          3.60023       -8.00924       -5.30862
C          5.03515       -4.93963       -3.05391
C          5.66285       -6.25456       -2.96189
C          6.69541       -6.19733       -2.09799
C          6.73366       -4.84484       -1.54879
C          5.76654       -4.09223       -2.10384
C          5.52667       -2.74007       -1.75826
N          5.32918       -1.63402       -1.47845
C          7.51240       -7.31665       -1.80583
S          8.25265       -7.56443       -0.27140
C          9.01267       -9.05280       -0.73577
C          8.67595       -9.30202       -2.03581
C          7.85548       -8.34401       -2.64001
S          7.52453       -8.78730       -4.37151
C          8.52199      -10.21705       -3.99272
N          9.06677      -10.38107       -2.78281
C          9.81031       -9.74339        0.21512
C         10.83477      -10.53283       -0.14822
C         11.68739      -11.23546        0.82134
C         11.17768      -11.70061        2.03596
C         12.00781      -12.39863        2.92309
N         11.40416      -12.84703        4.16189
O         10.89140      -11.97587        4.87966
O         11.40370      -14.06252        4.39180
C         13.35378      -12.65855        2.63604
C         13.85685      -12.18251        1.41728
C         13.03105      -11.49059        0.51641
C         14.27039      -13.38471        3.52474
C         14.99719      -12.75741        4.46263
C         15.92376      -13.45584        5.33043
C         16.71861      -12.95154        6.29050
C         17.29129      -13.96963        7.27792
O         17.42554      -15.16845        7.13554
C         17.56071      -13.15536        8.43135
C         17.99014      -13.40304        9.69932
S         18.06131      -11.97488       10.62952
C         17.52794      -10.99636        9.30263
C         17.32048      -11.77549        8.19587
C         16.96402      -11.57281        6.81025
C         17.08543      -10.41817        6.11698
C         17.34237       -9.17533        6.76386
N         17.53439       -8.16232        7.29678
C         17.07743      -10.37007        4.69330
N         17.09023      -10.31906        3.53646
Cl        18.43141      -14.89852       10.40787
H         -3.47312        0.27675       -5.34972
H          2.24070       -1.46072       -5.72803
H          3.67777       -2.39836       -3.51413
H          1.62910       -5.10856       -6.14978
H          5.35737       -7.13755       -3.49132
H          7.43765       -4.52320       -0.79408
H          8.67532      -10.94062       -4.78314
H          9.58014       -9.58161        1.26462
H         11.09275      -10.66936       -1.19729
H         10.13392      -11.53857        2.29636
H         14.90162      -12.34493        1.15308
H         13.45853      -11.14410       -0.42386
H         14.33270      -14.45840        3.35969
H         14.85896      -11.68990        4.59187
H         15.89884      -14.54504        5.22071
H         17.42378       -9.92940        9.44917
