92

C          2.64724      -15.17276        5.73833
C          1.53034      -14.36084        5.86102
C          1.33212      -13.17055        5.06751
N          0.21268      -12.43789        5.26642
C         -0.68436      -12.85942        6.20262
C         -0.47711      -13.99525        6.95112
N          0.63699      -14.75471        6.78287
C         -1.39800      -14.45451        7.95407
N         -2.14914      -14.81098        8.75977
C         -1.85209      -12.04712        6.35844
N         -2.81007      -11.40732        6.50658
C          2.28054      -12.75921        4.10214
C          3.44852      -13.56307        3.95747
C          3.62209      -14.79455        4.79703
N          4.76374      -15.45365        4.55691
S          5.55627      -14.60658        3.37155
N          4.48964      -13.35940        3.13144
C          2.14423      -11.55850        3.25293
C          2.62238      -10.37190        3.67738
C          2.51799       -9.18072        2.86718
C          1.91885       -9.19804        1.52240
C          1.39468      -10.28074        0.95104
S          1.34011      -11.84470        1.72155
C          2.00018       -7.87995        1.02495
C          2.58320       -7.06691        1.96965
C          2.73473       -5.73707        1.54162
C          2.21337       -5.58806        0.26390
S          1.58930       -7.07521       -0.37991
C          2.88618       -7.88834        3.12357
C          3.51663       -7.41509        4.33302
C          3.37058       -6.17409        4.82523
C          4.00767       -5.73773        6.01034
N          5.21878       -6.28237        6.37013
C          5.62394       -5.68071        7.52183
C          6.68005       -5.67984        8.45453
C          6.33456       -4.71494        9.38720
N          5.12481       -4.15321        9.03202
C          4.70229       -4.75718        7.87997
C          3.65954       -4.75312        6.92332
C          6.97375       -4.21350       10.54627
C          8.16133       -4.70354       10.93600
C          8.90538       -4.20812       12.07685
C          9.27830       -2.91482       12.12047
C         10.02848       -2.38451       13.22286
C         10.43019       -3.20674       14.37009
C         10.16282       -4.50582       14.49302
S          9.30030       -5.41842       13.28779
C         11.11599       -2.34788       15.25277
C         11.16743       -1.08326       14.71716
C         11.80729       -0.14909       15.54309
C         12.23605       -0.77302       16.70618
S         11.84097       -2.46500       16.75165
C         10.48957       -1.12132       13.44712
C         10.27427        0.01283       12.58834
C         11.25644        0.74478       12.03874
C         11.03035        1.89396       11.14051
C          9.94668        2.03690       10.23722
C          9.79244        3.21380        9.42224
N          8.74228        3.36364        8.59784
C          7.83451        2.35356        8.53096
C          7.98253        1.20581        9.27144
N          9.02865        1.04690       10.12403
C          7.05779        0.11232        9.21190
N          6.29596       -0.76313        9.16524
C          6.72170        2.56671        7.65584
N          5.80490        2.71728        6.95946
C         10.70878        4.25671        9.42350
C         11.83299        4.13351       10.26246
C         12.00696        2.93419       11.14381
N         13.13309        2.99851       11.87773
S         13.89571        4.41668       11.47854
N         12.82610        5.02724       10.36742
H          2.77375      -16.06157        6.34819
H          3.10842      -10.28444        4.64297
H          0.95806      -10.21563       -0.04249
H          3.18314       -4.92575        2.09874
H          2.17206       -4.68352       -0.32883
H          4.11048       -8.15098        4.86682
H          2.70465       -5.46244        4.34490
H          5.76291       -6.98721        5.89028
H          7.57233       -6.28840        8.43813
H          4.61823       -3.40785        9.49416
H          2.77747       -4.12795        6.89847
H          6.49873       -3.41486       11.11228
H          8.63735       -5.52004       10.39851
H          9.02542       -2.23953       11.30768
H         10.48716       -5.05452       15.37071
H         11.94858        0.90242       15.32935
H         12.75796       -0.32896       17.54213
H          9.22701        0.22701       12.39368
H         12.29597        0.50555       12.26231
H         10.57770        5.12877        8.79222
