104

C         -7.45877        0.68392       -1.06419
S         -7.89198        1.62773        0.30738
C         -9.56982        1.34146        0.07006
C         -9.78804        0.54389       -1.02567
C         -8.56518        0.15677       -1.69077
C         -8.53044       -0.66438       -2.83181
C         -9.83035       -1.06681       -3.22805
C        -11.03474       -0.66580       -2.57102
C        -11.06828        0.16508       -1.43042
O        -10.01421       -1.89571       -4.31209
C         -7.28779       -0.99959       -3.51335
C         -6.62852       -2.13404       -3.24038
C         -5.43844       -2.49405       -3.93307
S         -5.02780       -4.15637       -4.04907
C         -3.62565       -3.85249       -4.98629
C         -3.44070       -2.49645       -5.16314
C         -4.48228       -1.72080       -4.56844
C         -2.78177       -4.91918       -5.46841
C         -1.41622       -4.88026       -5.67575
C         -0.89895       -6.12437       -6.14948
C         -1.88288       -7.08125       -6.30875
S         -3.41800       -6.45038       -5.89656
C         -1.74595       -8.44017       -6.76975
S         -0.49906       -8.89371       -7.85281
C         -1.03916      -10.51689       -7.92045
C         -2.14649      -10.71405       -7.12403
C         -2.55039       -9.52207       -6.46051
C         -0.36422      -11.45000       -8.73970
C          0.68354      -12.12618       -8.24946
C          1.36811      -13.05795       -9.05963
N          2.68285      -13.31101       -8.74621
C          3.16123      -14.21296       -9.65031
C          4.32773      -14.92359      -10.00405
C          3.96643      -15.67673      -11.11115
N          2.64418      -15.43771      -11.41236
C          2.16645      -14.53174      -10.51090
C          1.00303      -13.81159      -10.16436
C          4.65739      -16.58907      -11.94223
C          5.93336      -16.90722      -11.68518
C          6.64229      -17.83284      -12.49330
S          7.92677      -18.71785      -11.78621
C          8.26421      -19.56619      -13.23334
C          7.41347      -19.17273      -14.24590
C          6.49060      -18.17440      -13.82408
C          9.29835      -20.56473      -13.30977
C          9.32658      -21.66704      -14.13963
C         10.48690      -22.47135      -13.93538
C         11.32588      -21.96503      -12.95964
S         10.70209      -20.49602      -12.33857
C         12.56196      -22.51843      -12.45499
S         13.18480      -24.00746      -13.03000
C         14.52779      -23.97900      -11.95434
C         14.51021      -22.82173      -11.20050
C         13.38823      -21.99127      -11.48419
C         15.42887      -25.07889      -11.96439
C         16.49292      -25.12927      -11.14946
C         17.34449      -26.26707      -11.17204
S         16.94423      -27.56805      -10.09697
C         18.26074      -28.52428      -10.60799
C         19.00604      -27.87379      -11.55677
C         18.49638      -26.55514      -11.89070
C         19.13548      -25.72005      -12.84297
C         20.30126      -26.32358      -13.38594
C         20.77476      -27.62431      -13.04534
C         20.14159      -28.46419      -12.11054
O         21.08598      -25.65309      -14.29950
C         18.66137      -24.39048      -13.20835
C         17.85847      -24.19202      -14.26108
H         -6.41377        0.57062       -1.31795
H        -10.29162        1.77322        0.74971
H        -11.98067       -1.02476       -2.97780
H        -11.99127        0.45585       -0.94675
H         -9.14428       -2.22001       -4.60207
H         -6.95776       -0.28922       -4.26529
H         -7.01589       -2.82360       -2.49110
H         -2.60935       -2.06983       -5.71192
H         -4.51643       -0.63885       -4.60743
H         -0.80166       -4.01038       -5.47845
H          0.15105       -6.30180       -6.35129
H         -2.64574      -11.67051       -7.02334
H         -3.39959       -9.46966       -5.78984
H         -0.71635      -11.58223       -9.75787
H          1.02677      -11.95101       -7.23160
H          3.24468      -12.90549       -8.00635
H          5.29355      -14.88611       -9.52024
H          2.08557      -15.83375      -12.15739
H          0.03636      -13.83855      -10.64724
H          4.13123      -17.04195      -12.77837
H          6.45053      -16.48851      -10.82569
H          7.45373      -19.56974      -15.25325
H          5.75270      -17.72345      -14.47640
H          8.54076      -21.90924      -14.84394
H         10.67510      -23.39000      -14.47844
H         15.25765      -22.57376      -10.45683
H         13.20487      -21.05546      -10.96863
H         15.23673      -25.89936      -12.65340
H         16.73358      -24.34243      -10.44408
H         18.41478      -29.50323      -10.17770
H         21.68086      -27.98282      -13.53390
H         20.51755      -29.44782      -11.86332
H         20.70014      -24.77148      -14.43897
H         19.00092      -23.56193      -12.59437
H         17.49294      -25.01512      -14.86926
H         17.51261      -23.19451      -14.51553
