120

C        -10.19154        5.14491       -0.17875
C         -9.37632        4.96237        0.88749
C         -9.50719        5.72877        2.08281
N         -9.63575        6.37249        3.03813
C         -8.19745        4.16806        0.78861
N         -7.19222        3.59287        0.68550
C        -11.06206        6.33215       -0.35846
C        -10.97590        6.70984       -1.71020
C        -11.52152        7.88580       -2.19367
C        -12.22717        8.68840       -1.29259
C        -12.41035        8.27444        0.04490
C        -11.82964        7.08621        0.51519
Cl       -13.33507        9.20094        1.17468
Cl       -12.85532       10.18619       -1.88143
C        -10.28645        5.65673       -2.49036
O        -10.05280        5.67213       -3.67911
C        -10.02098        4.55374       -1.50726
C         -9.93542        3.28375       -1.93450
C        -10.07061        2.07072       -1.13657
C         -9.06853        1.17094       -1.10534
C         -9.19133       -0.08008       -0.40032
C        -10.38412       -0.44133        0.37540
C        -11.48206        0.30857        0.44520
S        -11.64413        1.83962       -0.36976
C        -10.13073       -1.70839        0.94368
C         -8.89699       -2.15298        0.53675
C         -8.55165       -3.41148        1.05384
C         -9.57374       -3.87687        1.86944
S        -10.91111       -2.76983        1.97028
C         -8.32703       -1.12983       -0.30403
C         -7.03769       -1.21204       -0.92366
C         -6.70125       -2.16147       -1.80629
C         -5.38965       -2.19124       -2.41889
C         -5.32383       -2.12016       -3.77000
C         -4.04036       -2.18429       -4.43389
C         -3.69931       -2.12288       -5.74957
C         -4.53028       -1.74815       -6.97741
C         -5.20080       -2.98371       -7.63506
N         -5.95646       -2.65261       -8.85596
C         -5.60948       -0.64043       -6.75092
N         -5.09594        0.63200       -6.24482
C         -2.25083       -2.42197       -5.75073
C         -1.38718       -2.74001       -6.73080
C          0.08499       -3.08024       -6.44494
C          0.49878       -2.90334       -4.99004
C         -0.37292       -2.61383       -4.01212
C         -1.75527       -2.46674       -4.37423
C         -2.83337       -2.35424       -3.59319
C         -2.93347       -2.35523       -2.15617
C         -4.15903       -2.27920       -1.61021
C          0.97105       -2.24476       -7.32743
C          2.15770       -2.64104       -7.81964
C          2.97028       -1.80599       -8.68722
C          2.45024       -1.36829       -9.84793
C          3.20395       -0.59003      -10.79369
C          4.59045       -0.19460      -10.52105
C          5.26285       -0.51166       -9.41478
S          4.59351       -1.46969       -8.12305
C          5.01800        0.55773      -11.63043
C          4.00049        0.64583      -12.55056
C          4.35795        1.37913      -13.69503
C          5.66935        1.82377      -13.58166
S          6.41984        1.33797      -12.09429
C          2.86617       -0.08576      -12.02229
C          1.58307       -0.17770      -12.69355
C          0.78705       -1.25614      -12.63654
C         -0.53097       -1.35724      -13.21780
C         -1.13345       -2.50939      -13.55148
C         -2.46762       -2.72412      -14.16894
C         -3.56131       -1.95415      -14.04661
C         -4.83033       -2.29193      -14.59640
N         -5.85863       -2.57969      -15.06116
C         -3.58055       -0.74092      -13.29295
N         -3.59505        0.24934      -12.70339
C         -2.41317       -4.06061      -14.82679
C         -1.23348       -4.71294      -14.43535
C         -0.43035       -3.84855      -13.56329
O          0.59296       -4.19277      -13.00503
C         -0.87452       -5.97675      -14.88256
C         -1.73060       -6.61680      -15.78009
C         -2.91756       -5.98563      -16.19518
C         -3.25087       -4.70204      -15.72977
Cl        -4.02607       -6.73396      -17.29127
Cl        -1.25909       -8.16593      -16.37870
H        -11.39775        8.16728       -3.23516
H        -11.98359        6.78562        1.54819
H         -9.89530        3.09721       -3.01020
H         -8.12940        1.36864       -1.61677
H        -12.34115       -0.03511        1.01285
H         -7.63162       -3.95137        0.86767
H         -9.60999       -4.80780        2.41928
H         -6.32930       -0.42831       -0.66383
H         -7.40494       -2.93170       -2.11754
H         -6.22565       -2.05260       -4.36012
H         -3.83409       -1.32555       -7.71762
H         -5.87845       -3.47678       -6.92836
H         -4.43139       -3.71138       -7.91238
H         -6.90465       -2.36755       -8.59777
H         -6.08009       -3.48599       -9.42820
H         -6.40540       -0.98956       -6.08870
H         -6.11150       -0.41817       -7.69950
H         -4.18395        0.82043       -6.65838
H         -5.70789        1.38360       -6.56519
H         -1.71312       -2.80043       -7.76286
H          0.22759       -4.14308       -6.68730
H          1.54852       -3.03813       -4.73814
H         -0.05582       -2.49393       -2.98259
H         -2.04391       -2.40973       -1.54140
H         -4.26827       -2.27507       -0.52956
H          0.60809       -1.24376       -7.55303
H          2.56678       -3.61905       -7.57240
H          1.42804       -1.63117      -10.08902
H          6.28504       -0.17540       -9.28045
H          3.73078        1.57750      -14.55375
H          6.23920        2.40776      -14.29156
H          1.29745        0.68499      -13.29165
H          1.11997       -2.13028      -12.08489
H         -1.02001       -0.39519      -13.35935
H          0.05766       -6.43344      -14.56160
H         -4.15351       -4.24062      -16.11561
