77

C         -8.04508       -1.54867        1.15615
C         -8.78405       -1.89608        2.23689
C         -9.47094       -3.14491        2.34678
N        -10.03149       -4.15058        2.42121
C         -8.86862       -1.04907        3.38623
N         -8.93245       -0.33994        4.29955
C         -7.77516       -2.40208       -0.04165
C         -6.63181       -1.90688       -0.67808
C         -6.12349       -2.40471       -1.86963
C         -6.82482       -3.46407       -2.48352
C         -7.96671       -3.97875       -1.84870
C         -8.46096       -3.46100       -0.62235
S         -8.65507       -5.27024       -2.76958
C         -7.49201       -5.11256       -3.98243
C         -6.57980       -4.12289       -3.73560
Br        -7.45555       -6.18385       -5.51826
C         -6.13253       -0.70786        0.00503
O         -5.08236       -0.14116       -0.21001
C         -7.20466       -0.33979        0.98400
C         -7.40641        0.94286        1.34635
C         -6.62056        2.08643        0.92287
C         -5.49809        2.52734        1.59478
C         -4.87786        1.91868        2.73126
N         -4.35560        1.42062        3.63963
S         -4.84329        3.92503        0.87833
C         -5.98430        3.94749       -0.42062
C         -6.86991        2.88132       -0.26618
C         -7.92978        2.56657       -1.19175
N         -8.79464        2.25732       -1.89636
C         -5.82724        4.98636       -1.47316
C         -5.88541        4.73739       -2.85606
F         -6.13804        3.48427       -3.26960
C         -5.64644        5.71432       -3.87002
F         -5.60218        5.24929       -5.13007
C         -5.41018        7.09533       -3.64698
C         -5.36147        7.41232       -2.26197
C         -5.52548        6.34926       -1.16604
N         -5.34773        6.87193        0.06005
S         -4.98046        8.47033       -0.11310
N         -5.20378        8.63465       -1.73793
C         -5.15164        8.10338       -4.71849
C         -5.78873        8.05510       -5.96117
C         -6.88690        7.22738       -6.37004
N         -7.78801        6.57788       -6.70573
S         -5.12896        9.16018       -7.09556
C         -4.07122        9.84617       -5.94842
C         -4.28592        9.29090       -4.69124
C         -3.57910        9.87564       -3.57479
N         -2.96198       10.42781       -2.76130
C         -3.21549       10.92004       -6.34269
C         -1.99200       10.78113       -6.88097
C         -1.14975        9.63491       -7.28402
C         -1.03558        8.41813       -6.71990
C         -0.43536        7.30965       -7.37864
N          0.01120        6.38597       -7.92060
C         -1.39057        8.13293       -5.37410
N         -1.57723        7.83335       -4.27207
C         -0.10358       10.17644       -8.21667
C         -0.18868       11.57136       -8.22094
C         -1.35170       12.02230       -7.43975
O         -1.71771       13.17186       -7.30733
C          0.77020       12.40565       -8.79129
C          1.92657       11.80192       -9.33919
C          2.00407       10.40312       -9.36331
C          0.98238        9.57294       -8.84437
S          3.49893        9.86475      -10.04086
C          4.04868       11.44691      -10.23518
C          3.12791       12.39191       -9.86606
Br         5.75785       11.85993      -10.88001
H         -5.25110       -1.95332       -2.33414
H         -9.37424       -3.87575       -0.21020
H         -5.77028       -3.86384       -4.40773
H         -8.27867        1.19614        1.94622
H         -3.63063       11.92424       -6.22373
H          0.67004       13.48651       -8.73669
H          1.13941        8.50267       -8.88079
H          3.30555       13.45880       -9.92468
