89

C          3.35354        4.23138       -1.42157
C          2.23293        3.71589       -1.97443
C          2.11659        3.45270       -3.36582
N          2.01612        3.27384       -4.51181
C          1.13295        3.32125       -1.16997
N          0.24265        2.97164       -0.49898
C          4.67248        4.29762       -2.07565
C          5.63534        4.04550       -1.08655
C          6.97308        3.87373       -1.38470
C          7.36975        4.02546       -2.72217
C          6.42077        4.41226       -3.71433
C          5.06471        4.54875       -3.37983
C          6.85364        4.63565       -5.02877
C          8.18845        4.43470       -5.37932
C          9.10486        4.00826       -4.42133
C          8.70194        3.81408       -3.09992
C          5.01138        4.09555        0.25716
O          5.55805        3.93703        1.32679
C          3.58687        4.49613       -0.00318
C          2.92762        5.25325        0.89267
C          1.75293        6.10306        0.67348
N          0.89507        6.32656        1.69519
N         -0.25448        7.19846        1.59696
C         -0.60701        7.89280        0.47630
C          0.22891        7.67870       -0.64708
C          1.46988        6.81544       -0.52622
N          2.21056        6.84127       -1.65301
S          1.39609        7.74012       -2.77116
N          0.05138        8.13503       -1.90379
C         -1.87868        8.62157        0.43374
S         -3.10970        8.02603        1.47182
C         -4.39916        8.86003        0.69262
C         -3.87529        9.63731       -0.33588
C         -2.38678        9.67391       -0.31590
C         -1.64465       10.59069       -1.11292
C         -0.23183       10.97348       -0.88118
O          0.49642       10.58854        0.01380
O          0.17830       11.93504       -1.73373
C         -2.43541       11.30136       -2.05119
C         -3.84499       11.18959       -2.14250
C         -4.61513       10.40955       -1.26534
O         -5.97389       10.48346       -1.43331
C         -5.76066        8.58968        1.17965
N         -6.79684        8.64576        0.29864
N         -8.17619        8.38660        0.64431
C         -8.57943        7.99647        1.88092
C         -7.57028        7.91449        2.86521
C         -6.12542        8.24753        2.51617
N         -5.33168        8.20015        3.60320
S         -6.24497        7.66859        4.87236
N         -7.73396        7.57492        4.15755
C        -10.00477        7.82592        2.16820
C        -10.66142        6.65791        2.09274
C        -12.11339        6.37232        2.04613
C        -13.09073        6.96528        2.77163
C        -14.45003        6.53331        2.73716
N        -15.55494        6.18025        2.70325
C        -12.80808        8.02770        3.67886
N        -12.57034        8.90058        4.40806
C        -12.26006        5.17738        1.15935
C        -10.98707        4.61879        0.96946
C         -9.97349        5.38762        1.70183
O         -8.84221        5.03788        1.96146
C        -10.72821        3.55904        0.11825
C        -11.80109        3.00851       -0.58719
C        -13.11675        3.51602       -0.38645
C        -13.33332        4.61178        0.48194
C        -14.18091        2.91764       -1.07986
C        -13.95574        1.86535       -1.97103
C        -12.66246        1.40249       -2.19401
C        -11.59107        1.96881       -1.50438
H          7.68180        3.64048       -0.59640
H          4.34618        4.84502       -4.13867
H          6.15315        4.95806       -5.79760
H          8.51039        4.60032       -6.40433
H         10.13958        3.82964       -4.70248
H          9.43683        3.48583       -2.36821
H          3.33301        5.34429        1.90085
H          1.05694       12.21155       -1.39822
H         -1.95343       12.00446       -2.73288
H         -4.35949       11.77451       -2.90576
H         -6.41690        9.82019       -0.87356
H        -10.52219        8.76817        2.31850
H         -9.70987        3.20416       -0.01269
H        -14.33978        5.01029        0.56905
H        -15.20231        3.26368       -0.93172
H        -14.79186        1.40984       -2.49631
H        -12.48634        0.59621       -2.90189
H        -10.58741        1.59329       -1.69499
