98

C         -3.55293       -6.87507        5.21677
C         -4.14502       -8.16116        5.27782
C         -5.00098       -8.50936        6.44550
O         -5.03657       -9.62911        6.91966
O         -5.71400       -7.48277        6.94978
C         -3.84318       -9.13721        4.29497
C         -4.36864      -10.47938        4.32545
N         -4.74235      -11.57180        4.26447
C         -2.96651       -8.82016        3.24542
C         -2.41448       -7.54996        3.21197
C         -2.70478       -6.56027        4.16082
C         -1.88044       -5.35869        3.84194
C         -2.16020       -4.07582        4.17099
C         -3.32087       -3.73967        4.92161
N         -4.29054       -3.53687        5.52796
C         -1.36795       -2.98296        3.71491
N         -0.70534       -2.10482        3.34785
C         -0.82246       -5.83117        2.92962
C         -1.35603       -7.08567        2.29881
O         -1.04715       -7.60290        1.24821
C          0.45898       -5.43250        2.87264
C          1.47113       -6.19108        2.22257
C          1.98068       -6.08153        0.92885
C          3.01101       -7.02065        0.70277
C          3.23998       -7.79020        1.81919
S          2.29503       -7.42945        3.13330
C          4.26572       -8.70986        1.53476
C          4.69724       -8.52638        0.24225
C          3.92309       -7.44140       -0.36502
C          4.02171       -6.94712       -1.61381
C          4.96296       -7.45967       -2.54712
N          5.73623       -7.88129       -3.30270
C          3.18884       -5.88621       -2.06166
N          2.50868       -5.01697       -2.42034
C          5.73522       -9.42860       -0.08884
C          6.04137      -10.26656        0.98821
S          5.02971       -9.91411        2.36647
C          7.04844      -11.30991        1.03929
C          7.95181      -11.67991        0.03573
C          8.78326      -12.74354        0.45834
C          8.48000      -13.12727        1.74152
S          7.25943      -12.28738        2.46700
C          9.32242      -14.18246        2.12282
C         10.17019      -14.48234        1.08397
C          9.88066      -13.58112       -0.03886
C         10.48419      -13.52808       -1.24132
C         11.54307      -14.41178       -1.58232
N         12.40455      -15.14103       -1.85150
C         10.09401      -12.58509       -2.23044
N          9.76312      -11.81295       -3.03210
C         11.03544      -15.54838        1.42977
C         10.78231      -16.00738        2.72799
S          9.51002      -15.09392        3.48793
C         11.43823      -17.08819        3.43708
C         12.74669      -17.52686        3.28965
F         13.61820      -16.98902        2.47924
C         13.02557      -18.64939        4.10823
C         11.92552      -18.97452        4.84784
S         10.55591      -18.02739        4.62041
C         12.03725      -20.07191        5.66917
C         13.23025      -20.73307        5.62801
S         14.22016      -19.82092        4.54187
C         13.16395      -21.89264        6.43652
F         14.12893      -22.76679        6.53686
C         11.92754      -22.02955        7.05498
S         10.83605      -20.72925        6.65544
C         11.43475      -23.09701        7.86158
C         11.57877      -23.15246        9.19474
C         11.27575      -24.26658       10.11691
C         10.17005      -25.04936       10.09998
C          9.87559      -25.97432       11.13831
N          9.63509      -26.71847       11.99904
C          9.17776      -24.92855        9.08361
N          8.38704      -24.82596        8.24121
C         12.31147      -24.20068       11.18880
C         12.93640      -22.95251       11.10375
C         12.36433      -22.16433       10.00046
O         12.47868      -20.96899        9.84022
C         14.01335      -22.56785       11.88959
C         14.50413      -23.50261       12.82792
C         13.86883      -24.75102       12.93738
C         12.76915      -25.12539       12.12084
S         14.61675      -25.71824       14.16105
C         15.76313      -24.52566       14.49656
C         15.62032      -23.40276       13.72737
Br        17.10077      -24.72047       15.79357
H         -3.70687       -6.17254        6.03136
H         -5.74946       -6.64538        6.45153
H         -2.67800       -9.55930        2.49934
H          0.81510       -4.59234        3.46181
H          1.60038       -5.36092        0.21589
H          6.24723       -9.48763       -1.04192
H          7.98618      -11.19379       -0.93169
H         11.79353      -15.98743        0.79165
H         10.98596      -23.91824        7.31052
H         14.48206      -21.59745       11.75189
H         12.34825      -26.12006       12.22646
H         16.27061      -22.53839       13.79258
