130

C         -2.37835        1.18549        4.08052
O         -2.46828        1.10030        2.87559
C         -1.61930        0.28129        4.94224
C         -1.34538        0.89834        6.17618
C         -0.66084        0.16841        7.13980
C         -0.26864       -1.14372        6.83596
C         -0.56655       -1.73435        5.60480
C         -1.25326       -1.01580        4.64244
F         -1.59229       -1.58402        3.47930
F         -0.20649       -3.00213        5.36393
F          0.39227       -1.84875        7.76340
C         -1.95414        2.26380        6.15177
C         -1.60306        3.31727        6.92828
C         -0.59927        3.21916        7.93430
N          0.22516        3.11700        8.74424
C         -2.15422        4.61649        6.74564
N         -2.61293        5.67539        6.60505
C         -2.87352        2.27373        4.98665
C         -4.03021        2.94070        4.82832
C         -4.99096        2.70517        3.79345
C         -5.34314        1.54123        3.10516
C         -6.36936        1.79153        2.19023
C         -6.84228        3.08031        2.20794
S         -6.01678        4.03945        3.30771
C         -7.90711        3.36185        1.29823
C         -8.32586        2.31576        0.50368
Si        -7.29811        0.80445        0.90929
C         -6.26403        0.20558       -0.56659
C         -4.85571        0.17898       -0.49456
C         -4.07840       -0.17128       -1.60519
C         -4.68633       -0.48591       -2.81621
C         -6.07532       -0.47791       -2.91009
C         -6.85930       -0.15090       -1.79439
C         -8.19867       -0.71366        1.56511
C         -9.59807       -0.70993        1.74439
C        -10.28020       -1.85634        2.17209
C         -9.57748       -3.02073        2.46512
C         -8.19035       -3.03244        2.35254
C         -7.50611       -1.89241        1.90889
C         -9.31947        2.66706       -0.42146
C         -9.64201        4.02016       -0.30403
S         -8.75057        4.77252        0.98858
C        -10.56055        4.80139       -1.10934
C        -10.85453        6.16379       -0.99154
C        -11.77278        6.59622       -1.97552
C        -12.18768        5.53599       -2.73859
S        -11.46183        4.08213       -2.40763
C        -13.19386        5.98278       -3.60880
C        -13.42556        7.32782       -3.40452
C        -12.48214        7.82560       -2.40096
C        -12.18775        9.09513       -2.01750
C        -10.88054        9.19494       -1.24831
N         -9.79610        9.27774       -0.61021
C        -12.85559       10.25147       -2.48293
N        -13.41670       11.18732       -2.87072
C        -14.47261        7.78524       -4.23474
C        -14.97889        6.74435       -5.02462
S        -14.13739        5.25078       -4.75077
C        -16.08473        6.75842       -5.95274
C        -16.25568        5.95061       -7.07763
C        -17.50486        6.19280       -7.65683
C        -18.26967        7.12155       -6.98429
S        -17.45365        7.78922       -5.68009
C        -19.60572        7.29045       -7.46373
C        -19.96738        6.47789       -8.51471
Si       -18.49681        5.45882       -9.04203
C        -18.04504        5.96972      -10.81516
C        -17.10413        6.98957      -11.04891
C        -16.75451        7.35710      -12.35192
C        -17.32827        6.70923      -13.44274
C        -18.27875        5.71491      -13.23524
C        -18.65342        5.36475      -11.93546
C        -18.64567        3.59061       -9.07513
C        -17.91088        2.79577       -9.98031
C        -18.07005        1.40732      -10.02887
C        -18.93141        0.77310       -9.14159
C        -19.63327        1.52744       -8.20571
C        -19.49880        2.92126       -8.17523
C        -21.28614        6.63447       -8.93443
C        -21.91408        7.65065       -8.21335
S        -20.86550        8.28266       -6.97118
C        -23.23900        8.16214       -8.31517
C        -23.93781        8.18817       -9.46115
C        -25.43332        8.23649       -9.35902
O        -26.09756        8.71194       -8.46609
C        -25.91152        7.48174      -10.53302
C        -24.82782        7.13367      -11.36710
C        -23.61615        7.80961      -10.84132
C        -22.55021        8.21722      -11.57335
C        -22.35219        7.81902      -12.92300
N        -22.20997        7.45677      -14.01592
C        -21.59861        9.15050      -11.07333
N        -20.85033        9.95265      -10.70464
C        -25.04133        6.27964      -12.43900
C        -26.34380        5.83856      -12.68593
C        -27.41652        6.23131      -11.87737
C        -27.19964        7.05379      -10.78150
F        -28.21648        7.39603       -9.98164
F        -28.64967        5.78763      -12.15028
F        -26.55685        5.01280      -13.71817
H         -0.42473        0.54947        8.12764
H         -4.33483        3.68012        5.56502
H         -4.87158        0.57785        3.24623
H         -4.33027        0.45078        0.42107
H         -2.99368       -0.18247       -1.52417
H         -4.07879       -0.73466       -3.68310
H         -6.54919       -0.71902       -3.85910
H         -7.94160       -0.16567       -1.91207
H        -10.18713        0.18682        1.55503
H        -11.36315       -1.83998        2.27276
H        -10.10896       -3.91353        2.78631
H         -7.63880       -3.93556        2.60380
H         -6.42100       -1.94894        1.83032
H         -9.75113        2.00275       -1.16025
H        -10.41037        6.77990       -0.22023
H        -14.86123        8.79549       -4.26879
H        -15.53186        5.21833       -7.41735
H        -16.63163        7.52096      -10.22325
H        -16.02956        8.15112      -12.51468
H        -17.03913        6.98424      -14.45401
H        -18.72626        5.20776      -14.08706
H        -19.41022        4.59004      -11.81622
H        -17.20424        3.24234      -10.68001
H        -17.51554        0.82337      -10.75995
H        -19.04616       -0.30751       -9.17263
H        -20.28766        1.02847       -7.49468
H        -20.06854        3.47110       -7.42599
H        -21.75199        6.06439       -9.72670
H        -23.73800        8.43071       -7.38206
H        -24.24732        5.92219      -13.08678
