140

C         -4.24645        1.88563        3.82227
C         -3.21480        1.47598        4.67922
C         -3.23343        0.21325        5.28848
C         -4.30951       -0.64729        5.09484
C         -5.36145       -0.20929        4.30397
C         -5.32138        1.03400        3.61803
C         -6.51303        1.09316        2.69425
C         -7.10149        2.19458        2.18005
C         -6.64141        3.50629        2.48341
N         -6.27571        4.57255        2.75983
C         -8.29322        2.11159        1.40486
N         -9.25574        2.02802        0.76335
C         -7.04446       -0.30350        2.66569
C         -6.65958       -0.84065        3.97801
C         -7.48740       -1.37888        4.90220
C         -8.87602       -1.56763        4.62782
N        -10.00213       -1.71189        4.39204
C         -7.00841       -1.70650        6.19855
N         -6.54741       -1.97636        7.23020
C         -7.43737       -0.99002        1.57033
C         -7.57416       -2.42089        1.46936
C         -7.38204       -3.45146        2.36429
C         -7.66650       -4.78267        1.89527
C         -7.71501       -6.02087        2.58878
C         -7.67174       -6.05884        4.08787
C         -7.04778       -6.94683        4.95959
C         -7.22340       -6.62686        6.34020
C         -7.92825       -5.46023        6.51513
S         -8.59842       -4.94730        5.03089
C         -8.19961       -4.71244        7.78014
Cl        -6.57831       -7.59463        7.59570
C         -7.77748       -7.22182        1.85761
C         -7.74044       -7.23128        0.45388
C         -7.80386       -5.97977       -0.23883
C         -7.80740       -4.76959        0.50375
S         -7.95351       -3.12348       -0.04457
C         -7.84575       -5.92723       -1.73739
C         -8.52950       -5.06520       -2.58974
C         -8.30803       -5.31378       -3.97860
C         -7.49718       -6.40335       -4.18636
S         -6.87453       -6.97944       -2.70577
C         -7.08755       -7.06586       -5.46011
Cl        -9.01489       -4.34000       -5.19647
C         -7.61447       -8.60273       -0.00307
C         -7.64224       -9.56325        0.98410
S         -7.94264       -8.82663        2.47575
C         -7.47344      -10.99220        0.82144
C         -7.19245      -11.66931       -0.36856
C         -7.02136      -13.05967       -0.16375
C         -7.25209      -13.37480        1.15016
S         -7.58963      -12.10196        2.15245
C         -7.13299      -14.76200        1.30576
C         -6.81968      -15.34230        0.09589
C         -6.69370      -14.29604       -0.91578
C         -6.29262      -14.37466       -2.20886
C         -6.07679      -13.01129       -2.84529
N         -5.89774      -11.88026       -3.37327
C         -5.95698      -15.57015       -2.88028
N         -5.68938      -16.56337       -3.41646
C         -6.68760      -16.73927        0.22898
C         -6.93124      -17.13777        1.54827
S         -7.28259      -15.79304        2.58616
C         -6.89807      -18.45942        2.11472
C         -7.63028      -18.93213        3.17981
C         -7.31802      -20.28417        3.57728
C         -7.78203      -21.08297        4.66302
C         -8.78806      -20.51506        5.62480
C         -8.96952      -19.21906        6.09805
C        -10.08790      -19.06788        6.97717
C        -10.72136      -20.26158        7.22734
S        -10.07238      -21.50006        6.25198
C        -11.86980      -20.55165        8.13846
Cl       -10.54152      -17.54847        7.62405
C         -7.30918      -22.41254        4.79439
C         -6.54220      -23.01441        3.78626
C         -6.04119      -22.20700        2.73165
C         -6.40726      -20.84542        2.66388
S         -5.84882      -19.64688        1.54252
C         -5.10163      -22.78148        1.71384
C         -4.96554      -22.52252        0.35384
C         -3.90142      -23.23878       -0.27516
C         -3.24820      -24.07409        0.59936
S         -3.85862      -23.88480        2.18292
C         -2.11265      -25.01456        0.35460
Cl        -3.52708      -23.03099       -1.93315
C         -6.50076      -24.44093        3.99851
C         -6.93636      -24.86148        5.23616
S         -7.47652      -23.51874        6.12656
C         -7.05469      -26.17066        5.79186
C         -6.23786      -27.20285        5.50253
C         -6.65965      -28.62568        5.61238
C         -7.21582      -29.23682        6.68513
C         -7.49949      -28.53085        7.88028
N         -7.74468      -27.92799        8.85906
C         -7.47807      -30.63472        6.70065
N         -7.69340      -31.77476        6.70458
C         -6.20460      -29.24476        4.31898
C         -5.26605      -28.36515        3.70625
C         -4.80692      -28.58651        2.41423
C         -5.24977      -29.72353        1.73888
C         -6.14854      -30.61107        2.34693
C         -6.64197      -30.37066        3.63457
C         -5.05514      -27.20855        4.61666
C         -3.92023      -26.48933        4.77554
C         -2.76360      -26.72193        3.97861
N         -1.82780      -26.91644        3.31995
C         -3.77938      -25.52848        5.81959
N         -3.65054      -24.75391        6.67396
H         -4.16036        2.85058        3.33512
H         -2.37031        2.13866        4.86093
H         -2.40336       -0.09732        5.92055
H         -4.30030       -1.62975        5.55790
H         -7.55935       -0.44661        0.63283
H         -7.04136       -3.30599        3.37042
H         -6.47668       -7.80890        4.64076
H         -8.96519       -5.21624        8.37488
H         -8.54912       -3.69345        7.58988
H         -7.28776       -4.63568        8.38568
H         -9.17275       -4.26401       -2.25103
H         -7.42097       -6.50639       -6.33953
H         -7.51958       -8.07125       -5.52736
H         -5.99813       -7.15498       -5.51953
H         -7.48358       -8.88790       -1.03479
H         -7.10825      -11.14185       -1.30842
H         -6.43810      -17.43248       -0.56544
H         -8.35816      -18.30774        3.67866
H         -8.33948      -18.38225        5.82824
H        -11.79000      -19.98146        9.07095
H        -11.91705      -21.61093        8.41562
H        -12.81394      -20.28421        7.65378
H         -5.58324      -21.82216       -0.19311
H         -1.82584      -25.04855       -0.70117
H         -2.38108      -26.03563        0.64634
H         -1.23131      -24.70760        0.92705
H         -6.15112      -25.13248        3.24472
H         -7.95945      -26.33894        6.37349
H         -4.15351      -27.88844        1.89970
H         -4.91331      -29.91208        0.72039
H         -6.49222      -31.48320        1.79322
H         -7.38554      -31.05040        4.03760
