132

C          8.55376       -9.27686       -5.39503
C          8.89173       -9.01047       -4.09201
C          8.19455       -7.87571       -3.51793
C          8.34791       -7.15656       -2.29684
C          9.44674       -7.49458       -1.35123
C          9.44239       -7.49721        0.03834
C         10.69588       -7.85080        0.61463
C         11.62926       -8.18532       -0.33799
S         11.02856       -7.89651       -1.90848
C         13.01707       -8.69642       -0.14568
Cl        10.95065       -7.85958        2.30672
C          7.46355       -6.09147       -1.98039
C          6.32417       -5.85012       -2.75021
C          6.14949       -6.59677       -3.94687
C          7.14988       -7.49675       -4.37249
S          7.36577       -8.21349       -5.94614
C          5.03431       -6.28209       -4.87259
C          4.61899       -5.03981       -5.31289
C          3.93810       -5.12940       -6.55476
C          3.55646       -6.41175       -6.87301
S          4.07242       -7.50208       -5.65160
C          2.84617       -6.86198       -8.11046
Cl         3.76690       -3.77133       -7.57213
C          5.50278       -4.83431       -2.11609
C          6.04832       -4.18073       -1.02366
S          7.58623       -4.89468       -0.72676
C          5.55553       -3.06518       -0.12701
C          5.93033       -3.09620        1.24631
C          5.51381       -2.08884        2.10561
C          4.74417       -1.03439        1.67790
C          4.47197       -0.16960        2.80925
O          3.77023        0.83541        2.76060
N          5.10732       -0.73415        3.88095
C          5.73403       -1.90290        3.54679
O          6.34611       -2.68286        4.23218
C          5.02642       -0.20705        5.24116
C          6.38683        0.18168        5.79242
C          4.33672       -0.94126        0.37008
C          4.73538       -1.95586       -0.54417
C          4.17487       -1.71001       -1.87623
C          3.26706       -2.55475       -2.37356
C          2.61616       -2.33789       -3.60952
N          2.76783       -1.31423       -4.43185
C          2.00205       -1.53464       -5.53412
C          1.28567       -2.69435       -5.57512
S          1.47690       -3.56319       -4.10696
N          0.62822       -2.99018       -6.71961
C          0.88474       -2.03301       -7.58596
S          1.75181       -0.65153       -7.00253
C          0.41196       -2.12962       -8.92946
C         -0.20586       -1.15244       -9.65749
C         -0.83140       -1.63797      -10.86078
C         -1.70489       -0.98866      -11.76705
C         -2.06034        0.44376      -11.50980
C         -2.31818        1.09793      -10.30910
C         -2.58819        2.48997      -10.45115
C         -2.65592        2.86844      -11.77014
S         -2.11203        1.60767      -12.78845
C         -3.06985        4.17565      -12.35757
Cl        -2.83797        3.50950       -9.09900
C         -2.27978       -1.71930      -12.83194
C         -1.95239       -3.07041      -13.05959
C         -1.02600       -3.70746      -12.18232
C         -0.50481       -2.98771      -11.08126
S          0.52536       -3.56609       -9.81027
C         -0.63426       -5.14425      -12.38017
C          0.59694       -5.77517      -12.21403
C          0.57683       -7.17544      -12.49773
C         -0.64775       -7.59027      -12.96496
S         -1.80926       -6.35094      -12.77957
C         -1.05065       -8.92104      -13.51060
Cl         1.95755       -8.16950      -12.30160
C         -2.67825       -3.56128      -14.21019
C         -3.55601       -2.66327      -14.76714
S         -3.45431       -1.17263      -13.98707
C         -4.41578       -2.85990      -15.87631
C         -5.72482       -3.12889      -15.74692
C         -6.64486       -3.65052      -16.78038
C         -6.68543       -3.28184      -18.08480
C         -7.65173       -3.78939      -18.99819
N         -8.42652       -4.22084      -19.74272
C         -5.78118       -2.32120      -18.62689
N         -5.03175       -1.55534      -19.07156
C         -7.60238       -4.53811      -16.05564
C         -7.47120       -4.29155      -14.68071
C         -6.43357       -3.28537      -14.43263
O         -6.25481       -2.70966      -13.38173
C         -8.16364       -4.98119      -13.70023
C         -9.03849       -5.99006      -14.10551
C         -9.21020       -6.26307      -15.49341
C         -8.47999       -5.53346      -16.46189
C        -10.10596       -7.27536      -15.87068
C        -10.80591       -8.00998      -14.90996
C        -10.61606       -7.75196      -13.55538
C         -9.73732       -6.74700      -13.15469
H          8.96464      -10.03164       -6.05166
H          9.65305       -9.59237       -3.59182
H          8.57753       -7.23830        0.63614
H         13.59739       -8.00299        0.47062
H         13.54787       -8.82691       -1.09445
H         12.99613       -9.66988        0.35738
H          4.97742       -4.10887       -4.89661
H          3.00419       -7.92005       -8.33775
H          3.21426       -6.29483       -8.97511
H          1.77024       -6.67343       -8.03223
H          4.53237       -4.62624       -2.52099
H          6.53966       -3.89769        1.66067
H          4.57682       -0.97881        5.87587
H          4.36526        0.66818        5.25266
H          7.05937       -0.68169        5.85754
H          6.28125        0.60084        6.79662
H          6.86588        0.93308        5.15596
H          3.70444       -0.11005        0.06873
H          4.37333       -0.74594       -2.34539
H          3.01605       -3.45557       -1.82330
H         -0.31924       -0.15475       -9.25969
H         -2.30845        0.61228       -9.34228
H         -3.68292        4.75167      -11.65554
H         -3.67611        4.03035      -13.25894
H         -2.19416        4.77679      -12.61772
H          1.49769       -5.26729      -11.89269
H         -0.22122       -9.39391      -14.04930
H         -1.87747       -8.83065      -14.22444
H         -1.36163       -9.59166      -12.70438
H         -2.60112       -4.56464      -14.60394
H         -3.91408       -2.92706      -16.83624
H         -7.99317       -4.75191      -12.65170
H         -8.60145       -5.79368      -17.50902
H        -10.27184       -7.50314      -16.92204
H        -11.49984       -8.78739      -15.22020
H        -11.15417       -8.33111      -12.80886
H         -9.60042       -6.56276      -12.09062
