72

C          0.83013        3.25743       -3.35945
C         -0.52670        3.55811       -3.31682
F         -1.15703        3.90895       -4.44509
C         -1.23452        3.51711       -2.12363
C         -0.58071        3.15268       -0.94602
C          0.79120        2.85380       -0.95570
C          1.51411        2.92254       -2.18345
C          2.90477        2.69654       -2.20554
C          3.57791        2.45816       -1.01608
C          2.83144        2.31632        0.16342
C          1.46029        2.50564        0.22395
C          3.71041        1.94232        1.28464
O          3.36949        1.73480        2.42982
C          5.08900        1.81509        0.69616
C          5.02334        2.39045       -0.65566
C          6.00511        3.06527       -1.30242
C          7.25592        3.34604       -0.68399
N          8.25979        3.60681       -0.16047
C          5.82594        3.65961       -2.58633
N          5.67944        4.11917       -3.63743
C          5.99836        1.10375        1.38437
C          7.31585        0.60092        0.97681
C          8.33870        0.46335        1.89596
N          9.54603       -0.07615        1.61863
C          9.75044       -0.49471        0.35558
N          8.82603       -0.41622       -0.62087
C          7.62858        0.11064       -0.27717
C         11.02229       -1.14400        0.05435
C         12.00025       -1.35983        1.00555
N         13.17777       -1.98540        0.77638
C         13.40740       -2.42218       -0.47669
N         12.52582       -2.27700       -1.48729
C         11.36539       -1.63496       -1.19242
C         14.68189       -3.14769       -0.74954
C         14.73613       -4.08915       -1.71678
C         15.92912       -4.86079       -1.96677
C         17.15594       -4.67524       -1.18099
C         17.30081       -3.77755       -0.20935
S         16.04135       -2.68606        0.27397
C         18.09193       -5.61322       -1.65754
C         17.52866       -6.35120       -2.67106
C         18.41957       -7.29012       -3.22019
C         19.63775       -7.23885       -2.55242
S         19.66958       -6.03382       -1.30460
C         16.17466       -5.86714       -2.85842
C         15.24323       -6.40807       -3.82053
C         14.68424       -5.70122       -4.81991
C         13.72854       -6.24841       -5.79364
C         13.33060       -7.57369       -5.83938
N         12.46124       -8.08795       -6.73418
C         11.97070       -7.21850       -7.62565
N         12.26631       -5.91242       -7.69566
C         13.14345       -5.45891       -6.77057
H          1.34265        3.31644       -4.31613
H         -2.28934        3.77390       -2.11687
H         -1.14811        3.12622       -0.01751
H          3.42727        2.74860       -3.15622
H          0.93869        2.41033        1.17286
H          5.72442        0.78495        2.39466
H          8.21912        0.77944        2.93018
H          6.90286        0.10434       -1.08480
H         11.86607       -1.03353        2.03533
H         10.68796       -1.53333       -2.03821
H         13.85356       -4.31517       -2.30850
H         18.23979       -3.69818        0.32791
H         18.22150       -7.96623       -4.04120
H         20.51912       -7.84032       -2.73096
H         15.02217       -7.46240       -3.68201
H         14.94346       -4.65173       -4.95401
H         13.70541       -8.30805       -5.13453
H         11.27080       -7.61118       -8.35394
H         13.35933       -4.39591       -6.85208
