102

C         -4.19089       -7.73879       -0.09999
C         -3.54409       -6.70765       -0.78823
C         -2.24586       -6.52563       -0.32581
C         -1.87556       -7.38229        0.67775
S         -3.13975       -8.41210        1.05979
C         -0.52699       -7.17561        1.19318
C          0.14216       -6.13186        0.61522
Ge        -0.84212       -5.31166       -0.79781
C         -1.18050       -3.42174       -0.51743
C         -0.08876       -5.67650       -2.55204
C          1.38373       -5.86670        1.16394
C          1.68863       -6.77345        2.18135
S          0.41881       -7.89618        2.38069
C          2.90177       -6.70583        2.99448
C          3.55244       -7.78034        3.61458
C          4.66107       -7.33260        4.33191
C          4.83136       -5.97134        4.31823
S          3.68537       -5.23831        3.35577
C          5.92104       -5.47291        5.13754
C          6.66357       -6.44341        5.74208
Ge         6.02111       -8.21283        5.35680
C          5.36544       -9.18011        6.90964
C          7.23111       -9.32063        4.31220
C          7.69159       -5.95762        6.53250
C          7.70465       -4.54784        6.58604
S          6.45474       -3.94638        5.59258
C          8.66337       -3.81114        7.45167
C          8.63708       -2.57685        8.14316
C          7.52661       -1.60473        8.13782
O          6.53270       -1.84081        7.48549
C          7.63663       -0.35689        8.94518
C          8.79602       -0.12348        9.75161
C          8.74110        1.11709       10.43179
S          7.28900        1.85445       10.04190
C          6.67715        0.68454        9.01581
C          5.31946        0.89587        8.37312
F          4.90019       -0.11713        7.54351
F          4.37320        1.03967        9.37138
F          5.35450        2.06057        7.62974
C          9.70086        1.82347       11.35812
F         10.86859        1.14013       11.59141
F         10.02652        3.04903       10.80277
F          9.07368        2.04020       12.56955
C          9.89667       -1.14711        9.80444
O         10.88438       -1.00756       10.50290
C          9.78240       -2.35816        8.97240
C         10.71062       -3.40751        8.89176
S         10.09532       -4.52344        7.83382
C         11.98409       -4.01109        9.46130
C         13.07647       -4.52884        9.94985
C         14.34993       -5.13241       10.51939
S         15.19926       -4.09710       11.42320
C         16.27007       -5.31431       11.39465
C         16.00148       -6.51287       10.79975
C         14.81300       -6.38204       10.21161
C         17.61775       -4.94973       11.99569
C         18.77378       -4.63699       12.51126
C         20.12146       -4.27241       13.11229
C         21.13175       -5.14835       13.11478
C         22.47486       -4.76189       13.58468
C         23.66112       -5.35066       13.13199
C         24.77382       -4.73974       13.70146
C         24.48033       -3.74471       14.59558
S         22.82500       -3.51047       14.69318
C         25.63853       -3.12410       15.22555
C         26.84958       -3.60428       14.80661
Ge        26.66244       -4.96628       13.47311
C         27.35197       -6.71801       13.94259
C         27.29361       -4.38071       11.72941
C         27.94689       -3.00691       15.41778
C         27.55012       -2.03781       16.34491
S         25.85063       -1.93255       16.38301
H         -5.20980       -8.05526       -0.27643
H         -3.99795       -6.11744       -1.57284
H         -1.90570       -3.06030       -1.27423
H         -0.22495       -2.86760       -0.62941
H         -1.58338       -3.26164        0.50263
H          0.09485       -6.76756       -2.64583
H          0.87070       -5.13266       -2.66746
H         -0.80167       -5.35567       -3.33820
H          2.02852       -5.06003        0.84126
H          3.25231       -8.81571        3.53675
H          4.67755       -8.53232        7.48954
H          6.22427       -9.47627        7.54684
H          4.82659      -10.09042        6.57460
H          7.59046       -8.74894        3.43225
H          6.69591      -10.22987        3.96874
H          8.09655       -9.61754        4.93965
H          8.35835       -6.60595        7.08742
H         16.66301       -7.36635       10.72828
H         14.31903       -7.11933        9.59229
H         20.27839       -3.24968       13.44023
H         20.98950       -6.12719       12.66472
H         23.71309       -6.14824       12.40255
H         26.96846       -7.01508       14.93907
H         28.46055       -6.68036       13.96147
H         27.02199       -7.45310       13.17964
H         26.87459       -3.37621       11.51029
H         26.96005       -5.09583       10.95046
H         28.40110       -4.32124       11.73545
H         28.97598       -3.26262       15.20485
H         28.22433       -1.44390       16.94681
