107

C          0.51158        1.57546       -1.37035
C          1.19728        0.62289       -2.04449
C          0.90577        0.22749       -3.38285
N          0.68387       -0.07869       -4.48110
C          2.22131       -0.13674       -1.42727
N          3.04513       -0.78474       -0.92161
C         -0.82869        2.07828       -1.77964
C         -1.48433        2.55562       -0.64143
C         -2.78585        3.01973       -0.65473
C         -3.47263        3.04288       -1.88144
C         -2.83557        2.58454       -3.05229
C         -1.50207        2.11392       -2.99062
C         -3.47026        2.64344       -4.39576
O         -4.19404        3.53374       -4.79624
O         -3.04764        1.56176       -5.09925
C         -3.59156        1.44182       -6.41333
C         -4.82978        3.63447       -1.89514
O         -5.77880        3.25549       -2.55026
O         -4.75705        4.72265       -1.09165
C         -5.67910        5.77115       -1.36689
C         -0.58337        2.55217        0.51737
O         -0.86472        2.93675        1.63281
C          0.74443        2.06990        0.00331
C          1.80040        2.36228        0.78309
C          3.18031        2.28733        0.42772
C          3.80914        2.47065       -0.79593
F          3.18707        2.75549       -1.90800
C          5.20475        2.29466       -0.72115
C          5.59194        2.08147        0.56970
S          4.35470        2.01364        1.71326
C          6.95232        2.00170        0.78249
C          7.73504        2.10593       -0.33500
S          6.64900        2.28959       -1.65805
C          9.09886        2.05574        0.01572
F         10.07628        2.14971       -0.84455
C          9.26675        1.95920        1.38272
S          7.77006        1.84846        2.25463
C         10.54773        1.97991        2.01091
C         11.66766        2.05477        2.43819
C         13.02283        2.19695        2.85603
S         13.76837        3.71719        3.07804
C         15.26177        2.99896        3.49415
C         15.19476        1.62288        3.46768
C         13.89561        1.15908        3.09761
C         16.41082        3.76408        3.84514
C         17.31782        4.47226        4.19063
C         18.26848        5.40770        4.67224
C         19.58790        5.31501        4.41205
C         20.50821        6.28345        4.91434
C         20.29395        7.39746        5.72119
F         19.13454        7.76373        6.19640
C         21.46927        8.13396        5.95556
C         22.53413        7.53342        5.35469
S         22.20940        6.11865        4.49622
C         23.74273        8.17482        5.50393
C         23.71249        9.34739        6.20219
S         22.08375        9.55110        6.71617
C         24.98767        9.94226        6.21707
F         25.23680       11.09431        6.77904
C         25.94385        9.15307        5.59476
S         25.24030        7.70800        4.88842
C         27.33613        9.37186        5.40013
C         28.15867       10.00841        6.24547
C         28.05828       10.63564        7.57680
C         27.37407       10.18184        8.65638
C         27.32713       10.87537        9.89799
N         27.26395       11.45066       10.90358
C         26.70677        8.92176        8.65852
N         26.18258        7.88869        8.67517
C         29.10338       11.70036        7.62542
C         29.96037       11.49630        6.53795
C         29.46555       10.43490        5.65759
O         29.99271       10.06129        4.63125
C         31.10314       12.23479        6.30985
C         31.42146       13.27261        7.19709
C         30.52793       13.55562        8.25457
C         29.38362       12.75275        8.48611
C         30.66939       14.73481        9.13000
O         30.55076       14.69802       10.34111
O         30.79108       15.82149        8.33704
C         31.13671       17.02950        9.01405
C         32.67356       14.05389        6.95777
O         33.17481       14.87263        7.70275
O         33.11607       13.72619        5.72140
C         33.86683       14.70531        5.01164
H         -3.24006        3.38522        0.26415
H         -1.01942        1.81009       -3.91423
H         -3.36599        2.32408       -7.02046
H         -4.66912        1.27385       -6.34655
H         -3.13130        0.56953       -6.88746
H         -6.57585        5.67046       -0.75182
H         -5.92703        5.81788       -2.43045
H         -5.16949        6.70099       -1.09700
H          1.60052        2.76561        1.77925
H         16.03196        0.97661        3.70295
H         13.62452        0.11371        3.00953
H         17.85917        6.20440        5.27771
H         19.95745        4.50129        3.79160
H         27.73304        9.04848        4.43458
H         31.70957       11.99928        5.43837
H         28.73800       13.00887        9.32274
H         32.22436       17.08009        9.12453
H         30.65157       17.11864        9.98977
H         30.81450       17.86309        8.38528
H         34.86136       14.31354        4.78883
H         33.93565       15.66076        5.53611
H         33.33488       14.86344        4.06882
