93

C         -1.19714       -1.31815        0.15960
O         -1.04380       -2.35948       -0.44186
C         -0.12825       -0.52609        0.78576
C         -0.61528        0.73210        1.18338
C          0.21992        1.56736        1.91240
C          1.51974        1.13143        2.21461
C          1.97685       -0.12582        1.78799
C          1.15484       -0.97295        1.05470
Br         3.71266       -0.69839        2.26941
C         -2.03770        0.83667        0.75374
C         -2.73358        1.98140        0.55693
C         -2.18793        3.27345        0.82384
N         -1.74332        4.31883        1.04858
C         -4.04240        1.98085       -0.01146
N         -5.10462        1.98617       -0.47726
C         -2.45692       -0.53816        0.40445
C         -3.66497       -1.11430        0.52285
C         -3.94517       -2.55564        0.35966
C         -3.95219       -3.44492        1.46175
O         -3.54868       -2.87967        2.65271
C         -4.17165       -3.29693        3.86196
C         -4.21658       -4.81953        1.24213
O         -4.10958       -5.66504        2.32129
C         -3.41990       -6.89557        2.09922
C         -4.57819       -5.26629       -0.05664
C         -4.53968       -4.37395       -1.13180
C         -4.21291       -3.03299       -0.92830
C         -4.95093       -6.62737       -0.32955
C         -5.12941       -7.82228       -0.39285
C         -5.15945       -9.23196       -0.18806
S         -3.75229      -10.20734       -0.25782
C         -4.59281      -11.58155        0.30681
C         -5.92889      -11.31422        0.51247
C         -6.26039       -9.95598        0.21444
C         -3.98184      -12.85297        0.51955
C         -3.51714      -13.95020        0.64815
C         -3.03411      -15.28509        0.71090
C         -1.71993      -15.56420        0.68959
C         -1.17442      -16.93899        0.65018
C         -0.04903      -17.37881       -0.09464
O          0.80855      -16.60784       -0.82596
C          0.86887      -15.19769       -0.78646
C          0.26371      -18.77658       -0.12720
O          1.35084      -19.34661       -0.76281
C          1.84177      -18.76218       -1.96441
C         -0.50186      -19.69781        0.62457
C         -1.52945      -19.23211        1.43448
C         -1.86359      -17.88463        1.43668
C         -0.22555      -21.13758        0.71576
C         -0.62761      -22.16334       -0.04583
C         -0.02700      -23.49825        0.28687
O          0.49738      -23.85084        1.32308
C         -0.17737      -24.32021       -0.92087
C         -0.88440      -23.61525       -1.90574
C         -1.38340      -22.33474       -1.29900
C         -2.50417      -21.69156       -1.71037
C         -3.17973      -22.01361       -2.92457
N         -3.73192      -22.27172       -3.91352
C         -3.21433      -20.76083       -0.90775
N         -3.91429      -20.06262       -0.29208
C         -1.02033      -24.19974       -3.15771
C         -0.50089      -25.48857       -3.37168
C          0.15974      -26.18025       -2.34547
C          0.34074      -25.59379       -1.09990
Br         0.82413      -27.91997       -2.66877
H         -0.09854        2.53234        2.29395
H          2.16861        1.77538        2.80631
H          1.47330       -1.96124        0.73884
H         -4.53528       -0.55430        0.85339
H         -3.74229       -2.68531        4.66485
H         -3.94897       -4.33042        4.12954
H         -5.24959       -3.10766        3.84885
H         -2.72126       -7.06603        2.92139
H         -2.83500       -6.92116        1.17221
H         -4.14893       -7.71078        2.12789
H         -4.74413       -4.71979       -2.14285
H         -4.15619       -2.36467       -1.78452
H         -6.63685      -12.05094        0.87216
H         -7.24807       -9.53054        0.33656
H         -3.78474      -16.06944        0.72936
H         -1.02484      -14.73677        0.69187
H          0.00687      -14.76072       -1.29665
H          1.75708      -14.89474       -1.35255
H          1.00587      -14.81483        0.22889
H          2.61420      -19.42920       -2.36090
H          2.35098      -17.80947       -1.80051
H          1.05099      -18.67900       -2.71656
H         -2.10970      -19.91836        2.04926
H         -2.70288      -17.59025        2.06488
H          0.43592      -21.35220        1.56341
H         -1.50929      -23.70852       -3.99300
H         -0.62026      -25.95084       -4.35103
H          0.87053      -26.09701       -0.29597
