130

C          5.71265        6.77103        4.39778
C          5.95517        7.74815        3.48946
C          6.68301        8.92860        3.79861
N          7.27753        9.89196        4.05287
C          5.70477        7.54077        2.10438
N          5.61422        7.35142        0.96640
C          6.41261        6.66071        5.70374
C          6.62502        5.29831        5.95688
C          7.32813        4.83564        7.05997
C          7.78636        5.78203        7.98798
C          7.51355        7.16619        7.78253
C          6.83653        7.59779        6.62729
C          7.91671        8.09542        8.75002
C          8.59296        7.68196        9.89790
C          8.88681        6.33475       10.08621
C          8.48641        5.38974        9.13890
C          5.90481        4.47043        4.95733
O          5.89828        3.26863        4.88169
C          5.12729        5.46679        4.14576
C          3.91981        5.05921        3.65424
C          2.87778        5.96004        3.32211
C          2.51074        6.49618        2.10892
C          1.37817        7.40999        2.14214
C          0.76809        8.18937        1.11717
C          1.26300        8.11157       -0.29997
C          0.57046        8.11715       -1.50861
C          1.40879        8.00167       -2.66172
C          2.73188        7.84530       -2.32523
S          2.94808        8.12947       -0.65974
C          3.90720        7.55760       -3.20150
Cl         0.78619        8.02789       -4.25536
C         -0.29284        9.07392        1.43561
C         -0.80230        9.18668        2.74178
C         -0.28041        8.31645        3.75857
C          0.83951        7.47986        3.44468
S          1.77070        6.45498        4.50546
C         -0.90596        8.29847        5.14291
C         -1.51202        9.29758        5.90407
C         -1.99569        8.86514        7.18482
C         -1.74320        7.53540        7.41960
S         -1.05610        6.81116        6.03831
C         -2.03740        6.71493        8.63774
Cl        -2.79170        9.92573        8.27087
C         -1.80058       10.24788        2.77132
C         -2.09328       10.84174        1.55616
S         -1.12355       10.15316        0.35496
C         -3.05156       11.90107        1.26285
C         -3.41462       12.45844        0.02463
C         -4.40769       13.47493        0.15071
C         -4.67622       13.68477        1.47629
S         -3.91780       12.67971        2.55232
C         -5.56365       14.76233        1.58680
C         -5.87860       15.25708        0.34059
C         -5.19531       14.45555       -0.66632
C         -5.26962       14.49882       -2.01793
C         -4.59902       13.30233       -2.67298
N         -4.04269       12.30974       -3.21640
C         -5.87100       15.59822       -2.87820
N         -6.36989       16.51027       -3.59186
C         -6.81696       16.30661        0.44150
C         -7.16859       16.53476        1.77948
S         -6.26855       15.51965        2.86665
C         -8.12893       17.47690        2.36944
C         -8.78415       17.17159        3.57915
C         -9.64761       18.09837        4.13411
C         -9.90049       19.31966        3.48811
C         -9.28127       19.63177        2.29103
C         -8.39159       18.70823        1.73619
C        -10.85484       20.07261        4.26458
C        -11.20987       19.33140        5.41337
C        -10.46737       17.99003        5.42202
C        -11.46060       16.79240        5.34507
C        -12.32077       16.72563        4.07810
C         -9.56473       17.86418        6.68487
C         -8.45923       18.91572        6.82166
C        -12.11145       19.83684        6.33856
C        -12.66997       21.09662        6.09407
C        -12.32559       21.82410        4.93831
C        -11.40873       21.31479        4.01781
C        -13.64102       21.65975        7.02807
C        -14.95269       21.42910        6.86943
C        -15.98975       21.95869        7.75497
C        -15.90230       23.17847        8.46307
C        -16.93718       23.67701        9.29020
C        -18.15767       23.00832        9.47770
C        -18.31602       21.78729        8.78011
C        -17.21738       21.24568        7.89443
N        -17.55508       20.07989        7.31192
S        -19.08504       19.70811        7.83125
N        -19.40477       21.00379        8.81761
H          7.47282        3.76970        7.20929
H          6.63523        8.65511        6.48895
H          7.70079        9.15473        8.62348
H          8.89006        8.41485       10.64355
H          9.42348        6.01776       10.97752
H          8.72176        4.34172        9.31463
H          3.66624        4.00445        3.69356
H          3.07927        6.25482        1.22189
H         -0.50523        8.20206       -1.58866
H          3.68397        6.73688       -3.89371
H          4.78958        7.25597       -2.62566
H          4.17133        8.44022       -3.79148
H         -1.61745       10.32532        5.58978
H         -1.51450        7.11259        9.51575
H         -1.72725        5.67048        8.52086
H         -3.11133        6.71671        8.85274
H         -2.29446       10.57782        3.67090
H         -2.95648       12.12842       -0.90062
H         -7.26081       16.84490       -0.38720
H         -8.63597       16.22362        4.08745
H         -9.47532       20.57395        1.79032
H         -7.89404       18.96857        0.80602
H        -12.13387       16.81531        6.21136
H        -10.90599       15.84653        5.41318
H        -12.85846       17.66034        3.89576
H        -13.06532       15.92809        4.17027
H        -11.71594       16.49791        3.19403
H         -9.08383       16.87725        6.70372
H        -10.18908       17.91564        7.58688
H         -7.69118       18.78984        6.05201
H         -7.96324       18.81414        7.79325
H         -8.84843       19.93601        6.75868
H        -12.37966       19.26946        7.22439
H        -12.77675       22.79451        4.74887
H        -11.14810       21.88039        3.13139
H        -13.23299       22.25749        7.83586
H        -15.29913       20.79534        6.05356
H        -15.00061       23.78440        8.36910
H        -16.78010       24.62776        9.80094
H        -18.94168       23.40285       10.11266
