94

C          5.62856       -2.22094        3.71593
S          7.03329       -1.26390        3.65996
C          6.24700       -0.01122        2.76749
C          4.92556       -0.35699        2.49402
C          4.56694       -1.62557        3.07478
C          3.19357       -2.20559        2.94805
C          2.47171       -1.69551        1.69479
C          2.97454       -2.37223        0.42106
F          3.92467       -3.30073        0.65192
F          1.94233       -3.01219       -0.18373
F          3.46585       -1.49479       -0.47902
C          2.53633       -0.16083        1.62934
C          3.95761        0.41136        1.63136
C          7.02843        1.13029        2.41110
C          6.48537        2.35251        2.31013
C          7.22228        3.50833        1.96849
S          8.59938        3.58074        0.94318
C          8.74988        5.30713        1.06207
C          7.74406        5.74820        1.88265
C          6.88659        4.76394        2.37215
S          5.58650        5.47894        3.41669
C          6.41324        7.01688        3.04087
N          7.48875        7.04234        2.24910
C          9.78980        5.97796        0.34921
C          9.90518        7.31275        0.41127
C         10.87053        8.10411       -0.32069
C         10.96550        9.44258       -0.27228
C         11.85304       10.21289       -1.10698
C         11.63719       11.54097       -1.04306
C         10.57646       11.92027       -0.12689
S         10.00151       10.49709        0.73890
C         10.01274       13.13888       -0.01039
C         10.30623       14.30295       -0.82730
C          9.36372       15.25403       -0.75716
C          8.26526       14.90691        0.11965
S          8.66832       13.50407        1.07480
C          7.07922       15.53689        0.11018
C          5.98081       15.14806        0.91030
S          5.72490       15.74489        2.49303
C          4.26269       14.83255        2.72893
C          4.02661       14.13080        1.58569
C          4.94738       14.33656        0.54918
S          4.46949       13.43139       -0.94057
C          3.12765       12.83983        0.09831
N          2.97353       13.28543        1.35141
C          3.48375       14.93585        3.92282
C          4.02416       15.24614        5.10582
C          3.26939       15.40090        6.30881
S          1.66203       15.99977        6.29372
C          1.51411       15.97104        8.00202
C          2.69715       15.54086        8.58585
C          3.70283       15.19719        7.61123
C          5.08068       14.72913        8.01332
C          5.18111       14.30986        9.48896
C          4.75286       12.86064        9.72531
F          4.37752       12.22557        8.59742
F          5.79553       12.16170       10.24191
F          3.74401       12.74685       10.61512
C          4.44419       15.31429       10.39181
C          2.95618       15.43159       10.05945
C          0.27846       16.40425        8.56514
C         -0.20812       15.91139        9.71091
H          5.64890       -3.18388        4.20876
H          2.62290       -1.90414        3.83718
H          3.22759       -3.30124        2.95649
H          1.41293       -1.96409        1.80517
H          2.00532        0.24371        2.50205
H          1.99932        0.21300        0.74917
H          3.86606        1.44499        1.97034
H          4.35483        0.44230        0.60983
H          8.09778        0.98613        2.27174
H          5.43998        2.51043        2.54108
H          6.01769        7.92889        3.47040
H         10.46774        5.39236       -0.26226
H          9.21154        7.88294        1.02250
H         11.52069        7.55252       -0.99411
H         12.58598        9.75186       -1.74845
H         12.19141       12.24944       -1.63481
H         11.15582       14.36519       -1.49332
H          9.37653       16.16189       -1.34579
H          6.92594       16.38238       -0.55122
H          2.44728       12.11516       -0.33225
H          2.41801       14.73593        3.81815
H          5.09913       15.38140        5.20287
H          5.76926       15.56989        7.84829
H          5.42447       13.91965        7.35829
H          6.24508       14.36402        9.75723
H          4.91097       16.30130       10.27347
H          4.55967       15.03915       11.44657
H          2.55217       16.30789       10.57878
H          2.42236       14.55463       10.43850
H         -0.30350       17.14863        8.02571
H          0.28803       15.13279       10.27735
H         -1.15083       16.27133       10.10679
