115

C         -6.13794        6.24861        6.98535
C         -5.29553        7.26830        7.28965
C         -4.77972        7.47211        8.61150
N         -4.36277        7.64641        9.67117
C         -4.80222        8.18176        6.30851
N         -4.39113        8.92621        5.51146
C         -6.60853        5.17219        7.91781
C         -7.09567        4.11069        7.15151
C         -7.64408        2.94506        7.66640
C         -7.78224        2.86010        9.06319
C         -7.32694        3.92740        9.85376
C         -6.71518        5.08655        9.30135
S         -7.65232        3.62775       11.52627
C         -8.39909        2.15173       11.18588
C         -8.38515        1.82915        9.85703
Br        -9.18749        1.06717       12.49319
C         -7.08481        4.43788        5.72787
O         -7.41294        3.66895        4.85010
C         -6.64646        5.87039        5.64433
C         -6.86776        6.60007        4.53763
C         -7.39542        6.09996        3.30198
C         -6.48622        5.62620        2.37892
S         -7.24014        5.01776        1.00027
C         -8.79813        5.35241        1.62556
C         -8.79057        5.96713        2.87002
C        -10.08199        6.32525        3.41665
C        -10.15875        7.19106        4.67727
C         -9.63708        8.61456        4.46568
C        -11.33120        5.90476        2.72984
C        -12.69196        6.24338        3.35468
C        -13.25932        5.22523        4.34717
C        -11.25426        5.25069        1.43795
C        -12.22890        4.77113        0.44101
C        -11.61922        4.29655       -0.70524
S         -9.94311        4.39501       -0.65138
C         -9.97466        5.04312        0.92751
C        -13.67047        4.77490        0.51446
C        -14.46919        4.90647       -0.56143
C        -15.89738        4.98449       -0.59951
S        -16.58940        4.96292       -2.19279
C        -18.23811        5.06550       -1.66991
C        -18.25782        5.09159       -0.28276
C        -16.91942        5.11518        0.32257
C        -16.71587        5.24125        1.70679
C        -17.90421        5.29952        2.44837
F        -17.80043        5.41742        3.78146
C        -19.19094        5.23252        1.87449
F        -20.25841        5.27575        2.68661
C        -19.42726        5.12504        0.49609
C        -19.20348        5.09422       -2.73426
C        -20.52184        5.26346       -2.58179
C        -21.46612        5.26468       -3.68028
C        -22.43364        6.17846       -3.84023
C        -23.46130        6.12224       -4.85018
C        -24.44230        7.01732       -4.65899
C        -24.26421        7.81954       -3.45926
S        -22.64169        7.57831       -2.82065
C        -25.20807        8.54270       -2.82914
C        -26.58792        8.70760       -3.24337
C        -27.36474        9.28665       -2.31679
C        -26.66002        9.61471       -1.09805
S        -24.95333        9.31340       -1.26399
C        -27.24661       10.09550        0.00767
C        -26.58865       10.34675        1.27605
C        -26.96238       11.22764        2.21296
C        -28.01848       12.24257        2.28268
C        -28.39246       13.10301        1.30429
C        -29.36305       14.12777        1.51042
N        -30.16690       14.94652        1.67326
C        -27.76970       13.14264        0.02286
N        -27.28078       13.22636       -1.02589
C        -28.34455       12.40379        3.72804
C        -27.31320       11.82719        4.47575
C        -26.37976       11.10442        3.59255
O        -25.39276       10.49170        3.93979
C        -27.22766       11.90966        5.86075
C        -28.24707       12.61893        6.53882
C        -29.31969       13.13546        5.79497
C        -29.40233       13.01381        4.38780
S        -30.46682       13.92729        6.81468
C        -29.53073       13.64640        8.18915
C        -28.39167       12.92965        7.93546
Br       -30.01040       14.25978        9.89244
H         -8.01485        2.16652        7.00434
H         -6.41058        5.88383        9.97028
H         -8.81399        0.92277        9.44546
H         -6.58435        7.64609        4.49952
H         -5.40849        5.58219        2.45659
H         -9.61235        6.70215        5.49019
H        -11.17595        7.28249        5.05833
H         -8.55437        8.64805        4.33558
H         -9.86614        9.23496        5.33909
H        -10.08232        9.08732        3.58455
H        -13.42764        6.39029        2.56128
H        -12.66874        7.23094        3.82168
H        -13.59185        4.30857        3.84794
H        -14.14139        5.65044        4.84510
H        -12.54465        4.94582        5.12731
H        -12.07507        3.89954       -1.60092
H        -14.08034        4.65104        1.50179
H        -13.98895        4.96852       -1.53710
H        -15.77715        5.31221        2.22716
H        -20.44678        5.06541        0.15858
H        -18.82818        5.01288       -3.75522
H        -20.98841        5.42719       -1.62328
H        -21.41925        4.40462       -4.34352
H        -23.45107        5.39520       -5.64982
H        -25.31068        7.08711       -5.29757
H        -26.96344        8.37272       -4.19944
H        -28.42216        9.46900       -2.44752
H        -28.32042       10.26891       -0.01761
H        -25.76071        9.67152        1.50933
H        -26.39450       11.45971        6.39391
H        -30.26742       13.41790        3.87432
H        -27.67444       12.64830        8.69702
