86

C        -10.62286        3.25183        3.71055
C        -10.55465        3.63017        5.01712
C        -11.56724        3.32205        5.97336
N        -12.38345        3.08330        6.75873
C         -9.43897        4.32885        5.55636
N         -8.54029        4.90812        6.00061
C        -11.69839        2.40040        3.10079
C        -11.25839        1.97053        1.84698
C        -11.99157        1.14603        0.99970
C        -13.25680        0.70790        1.43846
C        -13.72215        1.14331        2.68810
C        -12.95929        1.99755        3.53035
S        -15.29413        0.50357        3.01855
C        -15.33369       -0.33311        1.55255
C        -14.20732       -0.15660        0.79638
Br       -16.77815       -1.39731        1.01334
C         -9.93209        2.51105        1.53356
O         -9.28020        2.20906        0.55651
C         -9.58509        3.45056        2.65681
C         -8.57156        4.32879        2.56902
C         -7.66922        4.38565        1.47090
O         -7.86879        5.15379        0.32540
C         -6.45314        3.78853        1.29667
C         -5.55228        2.89630        1.95306
O         -5.68104        2.37343        3.04589
N         -4.49762        2.77954        1.07280
C         -4.64344        3.52136       -0.08310
O         -3.85040        3.59630       -1.00220
C         -5.90948        4.17703        0.06865
C         -6.78072        5.04066       -0.55432
C         -6.75495        5.73564       -1.79853
C         -5.63300        5.95466       -2.50092
C         -5.61146        6.64235       -3.78696
C         -4.66323        6.51018       -4.72958
C         -4.68699        7.15073       -6.02711
C         -3.78969        6.65157       -6.89320
C         -2.99627        5.56212       -6.34706
S         -3.29553        5.43480       -4.61099
C         -2.21105        4.70147       -7.02534
C         -1.94159        4.68321       -8.45205
C         -1.27668        3.59276       -8.87142
C         -0.99540        2.64154       -7.81619
S         -1.43165        3.31958       -6.26258
C         -0.50773        1.39774       -7.99564
C         -0.42713        0.47380       -6.90866
S          1.10380        0.38413       -6.08750
C          0.37074       -0.12356       -4.63321
C         -0.96060       -0.38775       -4.82702
C         -1.39876       -0.25977       -6.22115
C         -2.74523       -0.55241       -6.61390
C         -3.57189       -0.71179       -5.45662
C         -3.11976       -0.81689       -4.11125
C         -1.77175       -0.72039       -3.74431
O         -4.94897       -0.76519       -5.57677
C         -3.23318       -0.96540       -7.95987
S         -2.90875       -0.03030       -9.37195
C         -3.85967       -0.99153      -10.40774
C         -4.47044       -1.99538       -9.71178
C         -4.06925       -2.03237       -8.32020
C         -4.56248       -3.01416       -7.43518
C         -5.52627       -3.85367       -8.03527
C         -5.92017       -3.78838       -9.40039
C         -5.38499       -2.86111      -10.31446
O         -6.17475       -4.79708       -7.27551
H        -11.59221        0.85478        0.03142
H        -13.39515        2.29887        4.47756
H        -14.04999       -0.61641       -0.17270
H         -8.36872        5.05789        3.34332
H         -3.68731        2.21531        1.25673
H         -7.71430        6.08125       -2.17457
H         -4.67160        5.61130       -2.12833
H         -6.46679        7.28235       -3.99411
H         -5.39139        7.93306       -6.27479
H         -3.69951        6.99189       -7.91486
H         -2.27191        5.46490       -9.12141
H         -1.02478        3.40145       -9.90548
H         -0.20262        1.05360       -8.97814
H          0.94645       -0.17023       -3.71828
H         -3.86336       -0.98201       -3.33279
H         -1.44362       -0.80173       -2.71603
H         -5.18189       -0.39287       -6.44699
H         -3.94543       -0.74792      -11.45818
H         -4.28379       -3.11078       -6.39581
H         -6.68087       -4.48722       -9.74925
H         -5.69637       -2.82270      -11.35033
H         -5.94534       -4.65131       -6.34208
