118

C          4.24086       -8.88810       -3.77762
S          3.60545       -8.51157       -2.24784
C          2.18659       -7.77472       -2.92081
C          2.22050       -7.86420       -4.30924
C          3.43753       -8.44926       -4.80421
O          3.68791       -8.63324       -6.13114
C          5.06813       -8.60487       -6.51604
C          5.29860       -9.60791       -7.63460
O          1.28734       -7.33799       -5.14543
N         -0.03820       -7.83631       -4.98852
O         -0.85267       -7.21112       -5.66781
O         -0.22774       -8.79060       -4.23167
C          1.26197       -7.25886       -1.96673
C          0.40885       -6.24523       -2.17912
C         -0.38308       -5.81168       -1.00442
N         -0.07404       -6.13007        0.22904
C         -0.94801       -5.41555        0.96661
C         -1.81663       -4.64578        0.11563
C         -2.70702       -3.83108        0.98132
O         -3.56019       -3.02913        0.66087
C         -2.25713       -4.18867        2.34657
C         -1.20603       -5.16268        2.24668
N         -0.74763       -5.50067        3.47706
C         -1.47850       -4.75916        4.26396
C         -2.47801       -3.87377        3.62375
C         -1.54785       -4.87712       -1.16411
C         -2.12920       -4.33587       -2.35319
C         -2.90239       -5.01856       -3.21682
C         -3.45848       -4.42884       -4.43561
C         -2.60672       -3.87601       -5.33546
C         -3.09629       -3.25404       -6.54672
C         -2.45149       -2.71306       -7.61323
C         -1.00396       -2.73991       -8.07022
C         -0.20727       -1.47282       -7.67561
N         -0.05014       -1.23577       -6.23944
C         -0.23214       -4.06590       -7.82389
N          0.20376       -4.34179       -6.46236
C         -3.51022       -2.02802       -8.36780
C         -3.45434       -1.24703       -9.45986
C         -4.68730       -0.55170      -10.02950
C         -5.98630       -0.94736       -9.32756
C         -6.04315       -1.77116       -8.26461
C         -4.80667       -2.28093       -7.73988
C         -4.55703       -3.06859       -6.68381
C         -5.44386       -3.77188       -5.78365
C         -4.90586       -4.44672       -4.74460
C         -4.55964        0.96026      -10.06018
C         -3.53703        1.73726       -9.65372
C         -3.65009        3.20799       -9.82421
N         -4.51278        3.78943      -10.62477
C         -4.26875        5.10975      -10.44686
C         -3.21786        5.30307       -9.48152
C         -3.00891        6.76331       -9.29477
O         -2.25078        7.34270       -8.55018
C         -3.97500        7.34835      -10.25670
C         -4.68601        6.28195      -10.91264
N         -5.56468        6.79207      -11.81374
C         -5.38665        8.07857      -11.69297
C         -4.38823        8.52896      -10.69889
C         -2.72438        4.13452       -9.08243
C         -1.63425        3.81924       -8.20823
C         -0.42542        4.40136       -8.30932
C          0.65580        4.01708       -7.46176
S          1.49374        2.56588       -7.79491
C          2.48061        2.69837       -6.38989
C          2.30003        3.94081       -5.78862
C          1.18002        4.66605       -6.35140
O          0.51446        5.78455       -5.94484
C          0.98812        6.53228       -4.83849
C          0.70944        5.87094       -3.49790
O          2.94172        4.22281       -4.62622
N          3.94262        5.22688       -4.71590
O          4.38363        5.54882       -3.61261
O          4.23242        5.66223       -5.83399
C          3.25140        1.54641       -6.04648
C          4.37929        1.57632       -5.32908
H          5.17954       -9.41986       -3.81844
H          5.76620       -8.84305       -5.70985
H          5.30583       -7.59509       -6.86788
H          4.85516      -10.57907       -7.39165
H          6.37046       -9.74570       -7.81156
H          4.83940       -9.26226       -8.56565
H          1.29098       -7.72128       -0.97819
H          0.31827       -5.69259       -3.10293
H         -1.39014       -4.75557        5.36163
H         -3.14502       -3.17823        4.07797
H         -1.93096       -3.27890       -2.52595
H         -3.15733       -6.06271       -3.04531
H         -1.55326       -3.81767       -5.11583
H         -1.05061       -2.70793       -9.17050
H         -0.69251       -0.59566       -8.12028
H          0.79479       -1.52631       -8.11782
H         -0.87110       -1.60840       -5.75775
H         -0.07116       -0.23111       -6.06579
H          0.66730       -4.06503       -8.45217
H         -0.84623       -4.90517       -8.17306
H          0.54560       -5.29526       -6.39665
H          0.93396       -3.68870       -6.18391
H         -2.51728       -1.07130       -9.97576
H         -4.78721       -0.88412      -11.07199
H         -6.91221       -0.54384       -9.72995
H         -6.98421       -2.03195       -7.79499
H         -6.50566       -3.81040       -5.99507
H         -5.54552       -5.02753       -4.08646
H         -5.43127        1.45620      -10.49341
H         -2.63201        1.33736       -9.21711
H         -5.92674        8.83204      -12.28578
H         -4.10027        9.52821      -10.44193
H         -1.81835        3.05562       -7.45577
H         -0.22490        5.17590       -9.04610
H          0.42805        7.47574       -4.85105
H          2.02854        6.83090       -4.97461
H          1.00720        4.82215       -3.46122
H         -0.36371        5.87799       -3.28797
H          1.22690        6.40603       -2.69627
H          2.88769        0.57425       -6.38221
H          4.84653        2.48204       -4.96681
H          4.88628        0.64369       -5.09402
