100

C         -2.59671        9.16708       -4.61942
C         -3.87637        9.19725       -4.23889
C         -4.06373        8.47488       -3.01199
C         -2.90970        7.97010       -2.56181
C         -1.90892        8.37941       -3.58589
O         -0.72045        8.11676       -3.60727
C         -2.69228        7.17841       -1.38257
C         -1.49085        6.73444       -0.99124
C         -1.35667        5.84535        0.17636
N         -2.06988        5.93756        1.27192
C         -1.52427        4.98647        2.07139
C         -0.44780        4.31086        1.39396
C          0.12226        3.28129        2.29916
O          1.02116        2.49648        2.09600
C         -0.69384        3.45645        3.52557
C         -1.65840        4.50342        3.30185
N         -2.40793        4.69307        4.41801
C         -1.91829        3.81272        5.24674
C         -0.81229        2.96425        4.75189
C         -0.28774        4.78831        0.16564
C          0.65881        4.42246       -0.84381
C          0.43206        4.49740       -2.16395
C          1.40070        4.13422       -3.18093
C          1.00744        3.23767       -4.11914
C          1.92305        2.85523       -5.17051
C          1.77639        1.97380       -6.19102
C          0.57386        1.11142       -6.52127
C          0.01257        1.46343       -7.92377
N         -1.21094        0.74344       -8.28792
C          0.86901       -0.39995       -6.35463
N          1.27738       -0.76666       -4.99478
C          3.05753        2.00900       -6.89897
C          3.50308        1.33827       -7.97354
C          4.90941        1.52805       -8.52518
C          5.72495        2.58999       -7.79278
C          5.27911        3.25733       -6.71574
C          3.95289        2.96581       -6.24540
C          3.26832        3.46450       -5.20677
C          3.63962        4.44330       -4.21479
C          2.74198        4.75291       -3.25884
C          5.61893        0.19506       -8.56221
C          6.37547       -0.31607       -7.57622
C          7.03688       -1.62995       -7.74347
N          6.97091       -2.36842       -8.82497
C          7.74210       -3.44043       -8.51770
C          8.27712       -3.31372       -7.18579
C          9.08734       -4.52233       -6.88123
O          9.68790       -4.81321       -5.87129
C          8.97463       -5.30317       -8.13502
C          8.14444       -4.58290       -9.06473
N          8.01599       -5.29092      -10.21640
C          8.73288       -6.35575       -9.98211
C          9.39123       -6.44686       -8.66115
C          7.87570       -2.17954       -6.62166
C          8.06057       -1.64605       -5.30683
C          9.14757       -1.83567       -4.54195
C          9.30362       -1.28520       -3.22528
C          8.38691       -1.02070       -2.28529
C          8.99892       -0.51343       -1.09091
C         10.32695       -0.43806       -1.22125
C         10.60566       -0.96674       -2.58341
O         11.70435       -1.10287       -3.08696
C         11.32739       -0.03511       -0.27890
C         11.14214        0.87141        0.68906
H         -2.11565        9.59856       -5.47726
H         -4.67463        9.69395       -4.77136
H         -5.02748        8.36736       -2.53453
H         -3.57382        6.91805       -0.79823
H         -0.58084        6.96900       -1.53040
H         -2.27665        3.67498        6.27768
H         -0.27806        2.19109        5.26567
H          1.60416        4.01005       -0.48891
H         -0.52909        4.81904       -2.55931
H          0.02263        2.78427       -4.09279
H         -0.22867        1.34749       -5.80853
H          0.75405        1.27493       -8.70466
H         -0.21551        2.53606       -7.95594
H         -1.03112       -0.25796       -8.34193
H         -1.49169        1.02096       -9.22882
H          1.64221       -0.72553       -7.05741
H         -0.02870       -0.98381       -6.58151
H          2.09636       -0.22172       -4.72550
H          1.56097       -1.74477       -4.98015
H          2.87636        0.62325       -8.49239
H          4.80828        1.88082       -9.56052
H          6.71720        2.80599       -8.18115
H          5.88407        4.00522       -6.21515
H          4.60943        4.92305       -4.25568
H          2.98509        5.50872       -2.51675
H          5.47298       -0.38046       -9.47627
H          6.51855        0.22564       -6.65032
H          8.86794       -7.17684      -10.70198
H         10.01297       -7.22627       -8.26934
H          7.24337       -1.03996       -4.92331
H          9.99689       -2.41820       -4.89840
H          7.32095       -1.17397       -2.37733
H          8.43407       -0.24735       -0.21009
H         12.30572       -0.49901       -0.39734
H         10.19628        1.38442        0.83207
H         11.95497        1.13465        1.35892
