104

C         -3.64937       -5.69771       12.26062
C         -3.81142       -4.79246       11.21131
C         -2.73788       -4.37011       10.37904
C         -1.36307       -4.71712       10.53927
C         -1.15690       -5.58931       11.66214
C         -2.32402       -6.12447       12.48454
N         -1.95862       -7.02154       13.41264
S         -0.31347       -7.17025       13.29575
N          0.02346       -6.01514       12.15056
C         -0.26616       -4.24522        9.63450
C         -0.28387       -3.00449        8.96334
C         -1.19531       -1.84993        9.03401
O         -1.92747       -1.65856        9.96719
N         -0.96011       -1.04328        7.93135
C          0.20620       -1.41605        7.33487
O          0.81622       -0.92356        6.38997
C          0.67125       -2.62337        8.01720
C          1.82871       -3.32315        7.79037
C          1.93555       -4.50424        8.49977
C          0.89584       -5.00088        9.31600
C          1.17025       -6.43341        9.56366
O          0.31317       -7.29094        9.64761
S          2.87839       -6.79547        9.40026
C          3.11400       -5.36185        8.44248
O          4.12744       -5.08115        7.82893
C         -1.70977        0.02396        7.50482
C         -2.77732        0.51757        8.14913
C         -3.59252        1.61682        7.66980
C         -4.93030        1.40204        7.53532
C         -5.79781        2.46542        7.06255
C         -7.14147        2.51483        6.81610
C         -8.25257        1.47848        7.05215
C         -8.06659        0.10576        6.34687
N         -7.98764        0.16147        4.88915
C         -8.51853        1.20318        8.57265
N         -9.61315        0.24740        8.83176
C         -7.34606        3.87120        6.24368
C         -8.39455        4.46702        5.64383
C         -8.35263        5.92463        5.14895
C         -6.99119        6.59401        5.30981
C         -5.93325        5.98619        5.86709
C         -6.09206        4.62620        6.30538
C         -5.17146        3.77672        6.77031
C         -3.75932        3.98657        6.97696
C         -3.01667        2.94842        7.39605
C         -9.37733        6.72858        5.91415
C        -10.09146        7.76825        5.44798
C        -10.93138        8.61423        6.31485
C        -10.56895        8.95536        7.62857
C         -9.34025        8.72742        8.43070
O         -8.30742        8.25563        7.99900
N         -9.59812        9.18128        9.71162
C        -10.82548        9.75156        9.78059
O        -11.40663       10.27910       10.71876
C        -11.42226        9.68893        8.45750
C        -12.61168       10.23314        8.02034
C        -12.94448        9.97225        6.70064
C        -12.15145        9.16781        5.86783
C        -12.78781        8.99876        4.54858
O        -12.38008        8.28425        3.65462
S        -14.25687        9.95220        4.40420
C        -14.14058       10.50068        6.05301
O        -14.93821       11.23537        6.59945
C         -8.75161        9.09301       10.79181
C         -7.42018        8.94647       10.74919
C         -6.57202        8.84255       11.94121
C         -5.26659        9.38393       11.98591
C         -4.41807        9.28246       13.11628
C         -4.79125        8.62150       14.29824
C         -6.08245        8.04399       14.31081
C         -6.99684        8.14660       13.11303
N         -8.16826        7.51450       13.31340
S         -8.13043        6.88839       14.84453
N         -6.62136        7.36704       15.33639
H         -4.47623       -6.04729       12.86680
H         -4.81042       -4.39768       11.01724
H         -3.03695       -3.70680        9.56571
H          2.58977       -2.98120        7.09445
H         -1.39751        0.44271        6.54742
H         -3.09305        0.12311        9.10811
H         -5.35941        0.42681        7.73019
H         -9.18636        1.90834        6.66449
H         -8.92330       -0.54122        6.57234
H         -7.18929       -0.41639        6.73921
H         -8.83790        0.58540        4.52099
H         -7.98205       -0.79626        4.53588
H         -8.76190        2.14062        9.08377
H         -7.62020        0.79407        9.04927
H        -10.32949        0.29777        8.10907
H        -10.07946        0.47568        9.71023
H         -9.32297        3.93558        5.47912
H         -8.59295        5.93620        4.07877
H         -6.88440        7.62021        4.96593
H         -4.98213        6.49593        5.97792
H         -3.31594        4.95826        6.79311
H         -1.95085        3.08355        7.56018
H         -9.42276        6.45928        6.96774
H        -10.03515        8.02795        4.39179
H        -13.23534       10.83582        8.67409
H         -9.26996        9.18805       11.74524
H         -6.88558        8.95597        9.80064
H         -4.88313        9.91873       11.11462
H         -3.42675        9.73578       13.06824
H         -4.13187        8.54472       15.15409
