124

C         19.05842       -0.62300      -10.46350
C         19.35223       -1.07435      -11.74383
F         20.38850       -0.54279      -12.40514
C         18.57613       -2.04805      -12.35779
C         17.48492       -2.59183      -11.67860
C         17.14471       -2.13415      -10.39594
C         17.94504       -1.12617       -9.78164
C         17.58238       -0.59214       -8.53176
C         16.39137       -0.98618       -7.94256
C         15.66109       -2.03121       -8.52806
C         16.01488       -2.62460       -9.72927
C         14.46838       -2.34428       -7.71892
O         13.63975       -3.19921       -7.96005
C         14.52116       -1.40400       -6.54587
C         15.57454       -0.41721       -6.83373
C         15.59256        0.89403       -6.48197
C         14.46087        1.51555       -5.88190
N         13.51874        2.02217       -5.43306
C         16.65452        1.78755       -6.81618
N         17.51849        2.51421       -7.06798
C         13.84103       -1.72774       -5.43153
C         13.93227       -1.12711       -4.05151
S         15.14500       -2.09330       -3.10032
C         13.92545       -2.58293       -1.86384
N         12.59772       -2.44984       -2.46763
C         12.60616       -1.20453       -3.24614
N         12.40151       -0.15139       -2.25097
C         11.35710       -0.71553       -1.38167
C         11.57020       -2.25473       -1.42559
C         10.25816       -2.96670       -1.72888
C          9.83744       -3.28508       -2.98277
C          8.42287       -3.52476       -3.18474
C          7.70338       -3.57483       -4.33645
C          8.18514       -3.72283       -5.77023
C          7.57119       -5.01239       -6.39264
N          8.00846       -5.30229       -7.76225
C          7.94972       -2.48818       -6.67199
N          8.53589       -1.25173       -6.15139
C          6.34146       -3.28079       -3.88569
C          5.31156       -2.72130       -4.53502
C          4.11448       -2.15449       -3.78889
C          4.00867       -2.61459       -2.34205
C          5.03457       -3.19584       -1.69558
C          6.25931       -3.35383       -2.43047
C          7.52279       -3.46932       -2.01148
C          8.07191       -3.47410       -0.68226
C          9.38924       -3.22653       -0.55811
C          2.87613       -2.50250       -4.54606
C          2.33793       -1.72170       -5.49999
C          1.15361       -2.07281       -6.35132
S         -0.33727       -1.43300       -5.53731
C         -1.20371       -3.00132       -5.64934
N         -0.53602       -3.88884       -6.59691
C          0.89042       -3.59480       -6.56357
N          1.41920       -4.10534       -7.82852
C          0.33384       -3.91146       -8.80411
C         -0.95210       -3.70508       -7.98564
C         -2.10634       -4.59726       -8.38115
C         -2.75896       -5.53698       -7.68024
C         -4.17360       -5.84962       -8.07685
O         -4.69704       -5.69445       -9.15972
C         -4.83369       -6.29397       -6.83129
C         -6.16693       -6.63169       -6.68040
C         -6.60056       -7.04730       -5.41505
C         -5.69460       -7.03329       -4.31200
C         -6.13625       -7.46387       -3.05483
C         -7.43627       -7.92703       -2.89604
C         -8.32510       -7.95176       -3.96200
C         -7.91315       -7.50177       -5.21716
F         -7.83222       -8.37233       -1.69672
C         -4.35880       -6.63749       -4.49498
C         -3.91365       -6.33234       -5.77147
C         -2.56319       -6.12228       -6.34892
C         -1.44006       -6.72695       -5.88844
C         -0.32489       -6.96423       -6.73805
N          0.57489       -7.21445       -7.42957
C         -1.33573       -7.27674       -4.57625
N         -1.25027       -7.69525       -3.49949
H         19.68409        0.15361      -10.03077
H         18.81837       -2.36858      -13.36609
H         16.88035       -3.34872      -12.17509
H         18.21678        0.16671       -8.08467
H         15.39449       -3.41184      -10.15055
H         13.17501       -2.59537       -5.48947
H         14.29267       -0.10322       -4.06365
H         14.07047       -1.93704       -0.98814
H         14.10558       -3.61587       -1.55337
H         11.75764       -1.17992       -3.94432
H         12.06107        0.69289       -2.71417
H         10.36892       -0.41505       -1.75300
H         11.47752       -0.32196       -0.36700
H         11.94193       -2.60749       -0.45377
H         10.44935       -3.10702       -3.85898
H          9.27207       -3.88584       -5.74648
H          6.47648       -4.96089       -6.38683
H          7.85177       -5.87510       -5.77474
H          7.72259       -4.55810       -8.39569
H          7.53556       -6.14213       -8.09687
H          6.88451       -2.33110       -6.85337
H          8.38766       -2.65887       -7.66077
H          8.18999       -1.08501       -5.20701
H          8.21435       -0.47103       -6.72167
H          5.34291       -2.52051       -5.59543
H          4.22449       -1.06081       -3.76863
H          3.07628       -2.43022       -1.81606
H          4.96627       -3.50795       -0.66109
H          7.43822       -3.67802        0.17175
H          9.84610       -3.23729        0.42725
H          2.45212       -3.46842       -4.29358
H          2.80400       -0.76374       -5.72990
H          1.24075       -1.55956       -7.31645
H         -2.26143       -2.84581       -5.88681
H         -1.17159       -3.46499       -4.65701
H          1.32164       -4.19951       -5.76292
H          1.53935       -5.11684       -7.71470
H          0.29045       -4.75867       -9.49567
H          0.55790       -3.00954       -9.38679
H         -1.27552       -2.66768       -8.15515
H         -2.53552       -4.30141       -9.34057
H         -6.83345       -6.60476       -7.53805
H         -5.47221       -7.47708       -2.19419
H         -9.33139       -8.33022       -3.81158
H         -8.61895       -7.53320       -6.04491
H         -3.69262       -6.62189       -3.63750
