97

C         -2.45047       -1.20149        0.86835
C         -1.09701       -1.19034        0.74566
C         -0.27277       -2.24856        1.22304
N          0.39773       -3.09854        1.61842
C         -0.39642       -0.13636        0.08755
N          0.18569        0.72023       -0.42771
C         -3.29432       -2.30703        1.42806
C         -4.61688       -2.07435        1.04073
C         -5.69896       -2.85412        1.42697
C         -5.43573       -3.98131        2.23329
C         -4.10715       -4.25422        2.59466
C         -3.02140       -3.41825        2.21867
S         -4.00876       -5.70973        3.52449
C         -5.67963       -5.94167        3.46101
C         -6.33984       -4.95509        2.78008
Br        -6.54362       -7.40980        4.24046
C         -4.70799       -0.87526        0.20028
O         -5.64458       -0.58866       -0.51412
C         -3.38957       -0.18484        0.35905
C         -3.24659        1.14686        0.27854
C         -4.33556        2.03504        0.03980
C         -4.77577        2.61147       -1.12698
C         -5.80611        3.59894       -0.91479
N         -6.29888        4.36401       -1.92699
C         -5.79695        4.02248       -3.14665
C         -4.80294        3.03395       -3.34576
N         -4.23177        2.31444       -2.33810
C         -4.20378        2.76792       -4.69636
C         -6.38851        4.78231       -4.30059
C         -6.22251        3.69831        0.40785
S         -5.28304        2.59069        1.35901
C         -7.27044        4.55132        1.05230
C         -7.21122        5.06400        2.38134
C         -8.23676        5.91885        2.93760
N         -8.18234        6.29563        4.23539
C         -7.13556        5.90609        4.98235
C         -6.12549        5.15804        4.44853
N         -6.15445        4.74586        3.16554
C         -9.30349        6.40986        2.16707
C         -9.42730        5.90295        0.84630
C         -8.43387        4.91099        0.30461
N         -8.82098        4.43783       -0.89338
S        -10.13867        5.29002       -1.38431
N        -10.35366        6.25171       -0.06647
C        -10.23237        7.47256        2.59640
C        -11.60282        7.57685        2.47605
C        -12.08777        8.89579        2.78932
N        -13.38395        9.27913        2.61099
C        -14.15545        8.28685        2.08210
C        -13.68613        6.98061        1.80380
N        -12.40133        6.57427        2.01504
C        -14.56148        5.95005        1.14595
C        -15.58112        8.68062        1.81379
C        -11.10892        9.75344        3.26407
S         -9.58259        8.94887        3.22021
C        -11.14120       11.12914        3.66917
C        -12.17790       11.72623        4.27455
C        -13.46708       11.23157        4.75238
C        -13.66840       10.17744        5.57809
C        -14.95632        9.79140        6.03973
N        -16.01338        9.47624        6.39438
C        -12.57174        9.48539        6.16726
N        -11.68062        8.97366        6.71627
C        -14.44167       12.33069        4.56144
C        -13.71289       13.52055        4.47694
C        -12.26978       13.22380        4.31016
O        -11.37388       14.03008        4.18115
C        -14.30487       14.77284        4.55915
C        -15.71102       14.81996        4.73200
C        -16.44240       13.62097        4.68509
C        -15.82724       12.35747        4.55609
S        -18.13615       13.90933        4.85319
C        -17.88835       15.55614        5.11787
C        -16.57822       15.93685        4.99471
Br       -19.27590       16.73874        5.54597
H         -6.70776       -2.59455        1.11738
H         -2.02675       -3.67638        2.56147
H         -7.41508       -4.92657        2.64729
H         -2.30428        1.63775        0.50057
H         -4.84938        3.07165       -5.52324
H         -4.00624        1.69715       -4.81562
H         -3.25507        3.30777       -4.77290
H         -7.15082        5.48828       -3.95283
H         -6.87514        4.09788       -5.00310
H         -5.61326        5.35398       -4.81853
H         -7.13473        6.22525        6.01768
H         -5.26290        4.85573        5.03000
H        -15.62466        6.10978        1.34169
H        -14.31201        4.95173        1.51969
H        -14.39676        5.96772        0.06364
H        -15.74816        9.73191        2.07358
H        -16.26222        8.07899        2.42299
H        -15.82292        8.55741        0.75380
H        -10.28590       11.74107        3.38300
H        -13.70013       15.67540        4.55159
H        -16.43477       11.45935        4.53028
H        -16.23267       16.95551        5.12191
