94

C          0.29639        1.14781        2.53242
C          0.98526        1.50467        3.64363
C          2.23463        0.92203        3.99594
N          3.25055        0.44305        4.28766
C          0.54238        2.53383        4.52554
N          0.17194        3.36526        5.24454
C          0.74531        0.18517        1.47647
C         -0.02791        0.40189        0.33421
C          0.07104       -0.33354       -0.83953
C          1.04008       -1.35567       -0.88457
C          1.84116       -1.57543        0.24717
C          1.70015       -0.82449        1.44528
S          2.97338       -2.85051       -0.03887
C          2.39842       -3.09864       -1.60641
C          1.36580       -2.26718       -1.94509
Br         3.10602       -4.38544       -2.76878
C         -0.98370        1.48656        0.55640
O         -1.58044        2.07307       -0.32131
C         -0.97129        1.74183        2.03368
C         -2.00422        2.23878        2.73697
C         -3.28388        2.58627        2.20502
C         -4.01724        2.05394        1.13971
C         -5.24315        2.71561        0.96131
C         -5.45844        3.63719        1.95606
S         -4.21205        3.81618        3.03323
C         -6.73563        4.19829        1.78094
C         -7.30980        3.66602        0.64992
C         -6.39397        2.68352        0.05926
C         -6.56003        1.93122       -1.04569
C         -5.57008        1.00383       -1.48586
N         -4.78260        0.23034       -1.84085
C         -7.74857        2.00629       -1.82005
N         -8.72304        2.07522       -2.44625
C         -8.58589        4.22343        0.42308
C         -8.93610        5.14123        1.42647
S         -7.69880        5.23582        2.63663
C        -10.17191        5.90472        1.52116
C        -10.47002        7.15699        2.07414
C         -9.60146        8.01337        2.89561
O        -10.01521        8.62450        3.87184
O         -8.31287        8.14351        2.50020
C        -11.84935        7.52099        1.78904
C        -12.57675        6.48145        1.26026
S        -11.60301        5.14313        0.90829
C        -12.48212        8.87629        1.97127
C        -13.82454        9.08623        2.27478
C        -14.12008       10.46562        2.28840
C        -13.02757       11.22001        1.92196
S        -11.63452       10.35716        1.67120
C        -13.41643       12.56981        1.81974
C        -14.74499       12.67460        2.16246
C        -15.26435       11.34642        2.50543
C        -16.50299       11.01435        2.92088
C        -16.85685        9.66767        3.20834
N        -17.14067        8.56067        3.42593
C        -17.52352       11.98966        3.08506
N        -18.36139       12.78384        3.20571
C        -15.20549       13.99769        2.01845
C        -14.19750       14.84845        1.54775
S        -12.72054       13.96954        1.26011
C        -14.36447       16.20388        1.15046
C        -13.50530       17.22951        1.22765
C        -12.15129       17.50621        1.74355
C        -11.56903       16.99009        2.85549
C        -10.25039       17.33078        3.27607
N         -9.17288       17.59878        3.61249
C        -12.26840       16.14129        3.76332
N        -12.82810       15.48411        4.54000
C        -11.64310       18.70283        0.98551
C        -12.70649       19.23869        0.25408
C        -13.90643       18.41175        0.39367
O        -14.98229       18.63949       -0.12108
C        -12.64060       20.40285       -0.50370
C        -11.42188       21.11070       -0.50856
C        -10.33667       20.58159        0.20606
C        -10.42008       19.36612        0.93966
S         -8.95232       21.61000        0.07326
C         -9.78865       22.72399       -0.88029
C        -11.07969       22.35342       -1.14278
Br        -9.02510       24.31292       -1.51383
H         -0.58619       -0.12931       -1.68110
H          2.33429       -1.07136        2.28906
H          0.86223       -2.28503       -2.90463
H         -1.92670        2.34743        3.81493
H         -3.65820        1.24020        0.52419
H         -9.23698        3.98455       -0.41085
H         -8.05846        7.52600        1.79336
H        -13.62215        6.46610        0.98192
H        -14.51774        8.27971        2.47808
H        -16.21745       14.34531        2.19373
H        -15.32638       16.38873        0.66560
H        -13.51033       20.76121       -1.04810
H         -9.53322       19.02043        1.45741
H        -11.76774       22.93902       -1.74125
