104

C         -1.57072       -9.31676        1.05416
N         -1.51276       -8.50627        0.04338
C         -1.45981       -7.22314        0.54202
C         -0.46951       -6.37422        0.27679
C         -1.65968       -8.66059        2.39408
S         -2.18760       -6.97990        2.15998
N         -0.82304       -6.17697        2.63458
C         -0.13749       -5.80419        1.59524
C          1.07620       -4.96024        1.64334
C          1.20772       -4.03930        2.60776
C          2.42678       -3.19830        2.62395
N          3.59603       -3.56452        2.15495
C          4.38842       -2.49194        2.42020
C          3.63221       -1.45508        3.07170
C          4.51271       -0.28353        3.30724
O          4.25952        0.78653        3.81468
C          5.80630       -0.75632        2.76803
C          5.64528       -2.09224        2.25515
N          6.82397       -2.53694        1.74880
C          7.62654       -1.52900        1.95818
C          7.05209       -0.33244        2.60927
C          2.37691       -1.83598        3.25301
C          1.24331       -1.13498        3.75617
C          1.27690       -0.23971        4.75904
C          0.10180        0.45352        5.26653
C         -1.09611       -0.18099        5.24819
C         -2.29100        0.46956        5.71756
C         -3.58559        0.06125        5.70861
C         -4.24641       -1.22910        5.23697
C         -4.61720       -1.15836        3.73120
N         -3.49250       -0.94499        2.81402
C         -3.49763       -2.54054        5.60726
N         -4.19317       -3.76194        5.18581
C         -4.32827        1.23337        6.18785
C         -5.64696        1.45271        6.31241
C         -6.20026        2.81848        6.70438
C         -5.13239        3.82810        7.12045
C         -3.81242        3.59535        7.01649
C         -3.39994        2.31893        6.50482
C         -2.17655        1.85489        6.21832
C         -0.88226        2.48559        6.31093
C          0.19299        1.80575        5.86540
C         -7.05617        3.34359        5.57160
C         -6.63049        4.10824        4.54962
C         -7.57515        4.54538        3.49511
N         -8.85853        4.27178        3.47961
C         -9.30163        4.89086        2.35967
C         -8.21080        5.55058        1.68630
C         -8.72865        6.21382        0.46296
O         -8.13691        6.86799       -0.36664
C        -10.17241        5.89925        0.52249
C        -10.43288        5.09833        1.69077
N        -11.75800        4.80972        1.76420
C        -12.24387        5.40584        0.70989
C        -11.28947        6.13441       -0.15241
C         -7.07330        5.39116        2.35570
C         -5.74376        5.84219        2.07735
C         -5.46318        6.97292        1.41102
C         -4.06441        7.36544        1.20422
N         -3.05501        7.06615        1.97656
C         -1.95731        7.75566        1.52165
C         -1.31620        8.64762        2.27804
C         -3.72161        8.22384        0.02655
S         -1.95868        8.17820       -0.21926
N         -1.60257        9.74280        0.17096
C         -1.18264        9.81944        1.39790
C         -0.72487       11.06382        2.05646
C         -0.18255       12.05048        1.33371
H         -1.58938      -10.41463        1.00634
H          0.24357       -6.47746       -0.52330
H         -1.43591       -9.23243        3.30053
H          1.82620       -5.09649        0.87178
H          0.44918       -3.88486        3.36722
H          8.69038       -1.52369        1.68052
H          7.52596        0.59433        2.86149
H          0.30636       -1.36239        3.25675
H          2.21531        0.02601        5.24247
H         -1.19475       -1.16891        4.82575
H         -5.20049       -1.30857        5.77775
H         -5.34360       -0.35143        3.57654
H         -5.12949       -2.07988        3.43164
H         -3.12031       -0.00710        2.96496
H         -3.84978       -0.95553        1.85911
H         -3.36293       -2.58368        6.69482
H         -2.50681       -2.58728        5.15876
H         -5.11230       -3.82779        5.61244
H         -3.65835       -4.57932        5.47933
H         -6.36714        0.67402        6.08905
H         -6.84374        2.67612        7.58247
H         -5.47573        4.78330        7.50821
H         -3.07504        4.33520        7.30477
H         -0.78975        3.48336        6.72192
H          1.17854        2.26226        5.91521
H         -8.09846        3.02741        5.60155
H         -5.59410        4.41276        4.47453
H        -13.30905        5.39753        0.43397
H        -11.47517        6.68989       -1.04925
H         -4.92659        5.21618        2.43058
H         -6.21602        7.64374        1.01830
H         -1.39896        8.72016        3.34906
H         -4.50658        8.72964       -0.54655
H         -0.84069       11.15252        3.12982
H         -0.05548       11.96627        0.25764
H          0.14931       12.96751        1.80832
