96

C          0.82784        0.27107       -1.12995
C          2.04721       -0.30581       -1.09133
C          2.30538       -1.55820       -1.72003
N          2.50250       -2.57459       -2.24465
C          3.12707        0.26705       -0.34878
N          3.99849        0.73117        0.24567
C         -0.40486       -0.29500       -1.72885
C         -1.50122        0.17037       -0.98700
C         -2.81528       -0.09464       -1.32794
C         -3.04881       -0.65170       -2.58878
C         -1.95091       -1.00785       -3.42890
C         -0.62649       -0.90034       -2.95652
C         -2.21056       -1.36423       -4.76065
C         -3.51535       -1.36083       -5.26004
C         -4.58567       -1.06700       -4.41992
C         -4.35617       -0.73709       -3.08473
C         -1.06376        1.27892       -0.10426
O         -1.75841        1.96405        0.61723
C          0.38572        1.49617       -0.44826
C          0.99695        2.69426       -0.50170
C          0.35514        3.99584       -0.24782
C          0.34011        4.62501        0.99268
C          1.00717        4.12049        2.19944
O          1.73179        3.14479        2.24260
S          0.67783        5.15471        3.56369
C          0.23414        6.44184        2.46680
O          0.51836        7.60387        2.67065
C         -0.23265        5.90463        1.18219
C         -0.98047        6.55825        0.17910
C         -1.04592        5.84445       -1.04043
C         -0.28087        4.69412       -1.27625
C         -0.11775        4.43427       -2.71527
O          0.74474        3.71807       -3.19112
S         -1.18750        5.42344       -3.67022
C         -1.89790        6.09037       -2.22198
O         -3.02482        6.55021       -2.19359
C         -1.56864        7.91476        0.34050
S         -1.78430        8.93143       -1.05820
C         -2.78119       10.08886       -0.24851
C         -2.50477        9.93203        1.08244
C         -1.95534        8.69492        1.40328
O         -1.96376        8.46995        2.72598
C         -2.40112        9.76689        3.24452
O         -2.87776       10.63581        2.16338
C         -3.75238       10.90805       -1.00139
C         -5.05131       11.15117       -0.50977
C         -5.65622       10.59001        0.71332
O         -5.33688        9.54700        1.25038
S         -7.08289       11.48179        1.17032
C         -7.26461       12.05052       -0.46891
O         -8.30518       12.51286       -0.89591
C         -6.02074       11.86859       -1.24506
C         -5.80671       12.25810       -2.57872
C         -4.60012       11.80498       -3.12260
C         -3.55493       11.31212       -2.33173
C         -2.30444       11.31970       -3.10518
O         -1.19386       11.45437       -2.62478
S         -2.61359       11.27329       -4.82188
C         -4.29309       11.66861       -4.55784
O         -5.12863       11.70587       -5.44516
C         -6.79775       13.05493       -3.35314
C         -6.57884       14.09679       -4.18885
C         -7.56851       14.95908       -4.89381
C         -8.82861       14.63922       -5.26654
C         -9.66868       15.52420       -6.00519
N        -10.35281       16.25393       -6.59506
C         -9.41119       13.35890       -5.00909
N         -9.88034       12.31814       -4.80806
C         -6.83342       16.20514       -5.30081
C         -5.46366       15.97784       -5.13541
C         -5.22837       14.70804       -4.44743
O         -4.13265       14.32897       -4.08170
C         -4.47443       16.89573       -5.45271
C         -4.86790       18.15501       -5.90258
C         -6.25243       18.45411       -6.03191
C         -7.22512       17.46599       -5.73301
C         -6.61831       19.74639       -6.44144
C         -5.64986       20.71713       -6.71316
C         -4.29745       20.41213       -6.58795
C         -3.90763       19.13591       -6.18844
H         -3.62876        0.27316       -0.70891
H          0.20163       -1.15159       -3.61529
H         -1.39322       -1.58416       -5.44517
H         -3.69464       -1.57103       -6.31168
H         -5.59972       -1.06092       -4.81238
H         -5.20671       -0.48315       -2.45525
H          1.99306        2.78081       -0.93216
H         -3.20731        9.61430        3.96814
H         -1.54734       10.25427        3.73286
H         -7.81895       12.77331       -3.13285
H         -3.42808       16.64116       -5.30923
H         -8.27375       17.74183       -5.81827
H         -7.66794       20.01631       -6.54608
H         -5.95139       21.71533       -7.02026
H         -3.54433       21.16907       -6.79499
H         -2.84541       18.91893       -6.08767
