112

C        -10.52432       -2.91136       -2.04460
C        -11.14530       -3.58315       -1.02102
C        -12.40312       -4.19399       -1.22528
N        -13.45822       -4.67234       -1.34761
C        -10.55628       -3.75679        0.23637
N        -10.11588       -3.88767        1.31877
C        -10.98951       -2.78164       -3.44396
C         -9.84965       -2.65409       -4.24018
C         -9.90861       -2.46195       -5.60573
C        -11.18057       -2.19572       -6.15214
C        -12.31903       -2.24506       -5.32881
C        -12.25546       -2.59265       -3.95961
S        -13.73753       -1.77036       -6.19444
C        -12.84975       -1.46109       -7.59524
C        -11.52494       -1.76825       -7.48497
Br       -13.60284       -0.74056       -9.15074
C         -8.64277       -2.46104       -3.40718
O         -7.48908       -2.39528       -3.80514
C         -9.19427       -2.29636       -2.03413
C         -8.80134       -1.48436       -1.04573
C         -7.72023       -0.51179       -0.68931
C         -7.62641       -0.45370        0.73348
O         -8.79748       -0.23366        1.41857
C         -9.34163        1.06359        1.23541
C        -10.03804        1.07665       -0.09665
C         -6.50859       -0.98035        1.39248
O         -6.48592       -1.27676        2.75673
C         -7.61212       -0.80469        3.53616
C         -7.82642       -1.31915        4.95125
C         -5.47362       -1.33602        0.50601
O         -4.30300       -1.99509        0.77991
C         -3.73998       -1.94837        2.08870
C         -3.82178       -3.32382        2.72647
C         -5.57315       -1.00408       -0.91257
C         -6.61905       -0.24840       -1.45774
C         -6.62639        0.73309       -2.69995
C         -5.46578        1.23100       -3.41215
O         -4.20372        1.55538       -2.91395
C         -3.93613        1.40885       -1.53085
C         -2.49274        1.64921       -1.12337
C         -5.53611        1.49332       -4.84398
O         -4.95406        2.70945       -5.21687
C         -4.15940        2.86364       -6.38964
C         -4.77613        3.83250       -7.40973
C         -6.60464        0.92673       -5.52989
O         -6.81519        0.50441       -6.80475
C         -5.99666        0.79639       -7.91171
C         -4.70863       -0.00132       -7.98611
C         -7.76106        0.70736       -4.77878
C         -7.84283        1.00301       -3.40718
C         -8.98704        2.03805       -3.07667
S        -10.40813        2.03910       -4.15404
C        -11.18497        3.35348       -3.40156
C        -10.51200        3.68536       -2.24609
C         -9.19640        3.06837       -2.12754
O         -8.31642        3.26371       -1.10243
S         -8.57809        4.47699        0.02745
C        -10.34629        4.31192        0.42646
S        -11.27583        4.76276       -1.04285
C        -12.32260        4.01591       -3.95040
C        -13.59510        3.57635       -3.85396
C        -14.65511        4.47880       -4.18796
O        -14.52810        5.84953       -4.05197
C        -15.69382        6.43954       -4.39701
C        -16.60711        5.49389       -4.77406
C        -15.94851        4.23139       -4.65877
C        -16.54858        2.91806       -5.00021
H         -8.99735       -2.37748       -6.18963
H        -13.15284       -2.57245       -3.35242
H        -10.79407       -1.63256       -8.26820
H         -9.49805       -1.52861       -0.21354
H         -8.55898        1.82153        1.36788
H        -10.08144        1.22266        2.02386
H        -10.68787        1.90430       -0.29935
H        -10.63394        0.19109       -0.28887
H         -9.25888        1.10521       -0.84088
H         -8.53090       -1.18826        3.09931
H         -7.58175        0.29268        3.56476
H         -8.39968       -2.25594        4.91167
H         -8.48174       -0.61255        5.48431
H         -6.91806       -1.48736        5.52189
H         -4.15840       -1.16424        2.72358
H         -2.67975       -1.69170        1.96760
H         -4.79165       -3.79564        2.54413
H         -3.64168       -3.26735        3.80381
H         -3.05989       -3.98429        2.29507
H         -4.75477       -1.33132       -1.55747
H         -3.98933        0.36692       -1.31365
H         -4.62998        1.99063       -0.91845
H         -1.80141        1.13436       -1.79907
H         -2.33996        1.23220       -0.11696
H         -2.23938        2.70797       -1.09728
H         -3.90083        1.91331       -6.83582
H         -3.19600        3.28932       -6.08895
H         -5.87104        3.85622       -7.37113
H         -4.46645        3.56289       -8.42956
H         -4.43302        4.85841       -7.24687
H         -5.85977        1.86237       -7.97662
H         -6.58178        0.56501       -8.80964
H         -4.24197       -0.14218       -7.00723
H         -3.99901        0.50358       -8.65309
H         -4.89262       -0.99805       -8.39327
H         -8.65663        0.46068       -5.34573
H        -10.64574        3.33940        0.81779
H        -10.62675        4.97767        1.24832
H        -12.14445        5.02403       -4.31368
H        -13.84650        2.59671       -3.45950
H        -15.71429        7.51848       -4.32647
H        -17.61824        5.68519       -5.10599
H        -17.45699        3.04696       -5.59842
H        -16.81214        2.36662       -4.09271
H        -15.84730        2.31725       -5.58796
