91

C          0.36730        1.16004       -1.11181
C         -0.52681        0.50911       -0.29038
C         -0.45306       -0.90998        0.00478
N         -1.33680       -1.40054        0.90014
C         -2.35539       -0.59231        1.33356
C         -2.42818        0.73806        0.99347
N         -1.48183        1.30587        0.21016
C         -3.48572        1.59991        1.43141
N         -4.35166        2.27831        1.79882
C         -3.36462       -1.22701        2.12251
N         -4.19242       -1.73043        2.76595
C          0.47941       -1.79395       -0.62810
C          1.35167       -1.13251       -1.56233
C          1.32329        0.36060       -1.75085
N          2.27488        0.82430       -2.57168
S          3.12780       -0.49345       -3.09398
N          2.24721       -1.71110       -2.38508
C          0.57378       -3.28964       -0.40876
C         -0.51858       -4.14866       -0.14360
C         -1.93875       -3.80920       -0.21100
O         -2.40877       -2.99927       -1.00851
S         -2.90095       -4.83284        0.78699
C         -1.68941       -6.08285        0.65499
O         -1.94893       -7.22944        0.95540
C         -0.40702       -5.53868        0.12514
C          0.79909       -6.22235       -0.10002
C          1.87465       -5.39077       -0.42460
C          1.78496       -4.00356       -0.45022
C          3.16519       -3.53219       -0.40125
O          3.54437       -2.45589        0.02115
O          3.94615       -4.58271       -0.74540
C          3.24370       -5.73942       -0.78782
O          3.67385       -6.83506       -1.08019
C          1.01751       -7.67353        0.06891
C          0.11205       -8.60921       -0.24852
C          0.27356      -10.03838        0.00779
C         -0.02176      -10.63766        1.24756
C         -0.38220       -9.93503        2.49301
O         -0.45509       -8.72993        2.64183
S         -0.59065      -11.02964        3.82813
C         -0.35242      -12.41578        2.80457
O         -0.49176      -13.53992        3.24170
C          0.02241      -12.03074        1.41974
C          0.36445      -12.88297        0.34753
C          0.60132      -12.26223       -0.88909
C          0.61108      -10.89593       -1.03465
C          1.03446      -10.59119       -2.39476
O          1.30090       -9.50381       -2.85832
O          1.10753      -11.78213       -3.03461
C          0.83878      -12.82846       -2.21487
O          0.75829      -13.99114       -2.54527
C          0.49292      -14.34018        0.44862
C          1.04563      -14.96208        1.50104
C          1.13364      -16.36209        1.60698
S          0.80344      -17.49768        0.35172
C          1.17855      -18.88685        1.33246
C          1.56063      -18.42360        2.54650
C          1.50691      -17.05938        2.69627
N          1.85555      -16.66009        3.95281
N          2.20614      -17.74818        4.71135
C          2.01688      -18.80439        3.85844
C          1.02538      -20.16262        0.75371
C          1.33330      -21.27060        1.43128
C          1.17313      -22.57611        0.84665
C          1.87218      -23.65029        1.21029
C          2.92273      -23.72620        2.19463
C          3.47095      -24.94313        2.29573
C          2.89884      -25.91980        1.38751
S          1.61567      -25.18989        0.43034
C          3.28227      -27.20375        1.26318
C          4.33831      -27.84557        2.02953
C          4.53888      -29.13141        1.70800
C          3.64666      -29.59633        0.66234
S          2.57015      -28.34946        0.13136
C          3.64210      -30.82902        0.15696
H          0.32019        2.22991       -1.28188
H          1.98608       -7.97955        0.46453
H         -0.84762       -8.35617       -0.69203
H          0.15276      -14.91073       -0.41426
H          1.41875      -14.39686        2.34688
H          1.85889      -15.72841        4.35073
H          2.22183      -19.79786        4.23368
H          0.66564      -20.23034       -0.27116
H          1.71750      -21.22343        2.44251
H          0.43355      -22.65930        0.05245
H          3.25150      -22.88086        2.78229
H          4.27399      -25.15994        2.98422
H          4.91463      -27.34100        2.78847
H          5.27709      -29.76269        2.16938
H          4.32217      -31.59843        0.50324
H          2.95016      -31.10661       -0.63015
