118

C          2.79080       -1.08398        9.74399
C          3.08588       -1.49097       11.04243
F          3.26489       -0.56419       11.99273
C          3.19073       -2.83864       11.35666
F          3.46697       -3.22217       12.60980
C          3.00606       -3.80546       10.37714
C          2.70769       -3.41911        9.06422
C          2.59397       -2.03587        8.73184
C          2.27942       -1.64428        7.40860
C          2.09183       -2.60703        6.42436
C          2.19499       -3.95169        6.80021
C          2.50446       -4.38288        8.07977
C          1.86481       -4.83692        5.68408
O          1.91962       -6.04751        5.74230
C          1.44158       -3.93917        4.55465
C          1.75634       -2.54917        4.96638
C          1.85715       -1.46446        4.15544
C          1.64215       -1.52890        2.74636
N          1.46501       -1.58455        1.60182
C          2.23870       -0.18065        4.63112
N          2.54827        0.87071        5.02163
C          0.75254       -4.38042        3.49001
C          0.40663       -5.74649        3.21201
C         -0.86447       -6.16740        3.05447
C         -0.84589       -7.61567        2.84142
C          0.57084       -8.01247        2.93667
C          1.28782       -6.89185        3.10490
C          1.18217       -9.28712        2.98826
N          1.74481      -10.30248        3.02673
C         -1.94149       -8.37494        2.64202
C         -1.92011       -9.82210        2.47322
C         -3.18701      -10.28272        2.48682
C         -4.07563       -9.12290        2.52859
C         -3.35734       -7.99006        2.59832
C         -3.94359       -6.69993        2.61712
N         -4.43397       -5.64966        2.63920
C         -3.50940      -11.66709        2.34935
S         -4.95196      -12.04907        1.49647
C         -4.68121      -13.75719        1.46822
C         -3.45017      -14.03746        2.05726
C         -2.88403      -12.84651        2.73610
C         -1.75870      -12.94798        3.59157
C         -1.30592      -11.98410        4.54125
N         -0.86833      -11.32337        5.37859
C         -1.14443      -14.20082        3.63444
C         -1.62743      -15.30401        2.92340
C         -2.79013      -15.30484        2.11385
O         -3.17179      -16.43977        1.43147
C         -2.04908      -17.26444        1.06189
C         -5.73379      -14.59145        0.95744
C         -6.52159      -14.23198       -0.07690
C         -7.64115      -15.01494       -0.57572
C         -8.92835      -14.59886       -0.72024
N         -9.44277      -13.27463       -0.40981
O        -10.65713      -13.09496       -0.58537
O         -8.66885      -12.40292        0.00450
C         -9.79776      -15.68996       -1.10429
C         -9.08460      -16.82467       -1.15533
C         -7.69152      -16.48308       -0.89446
C         -6.67356      -17.35792       -1.02920
C         -5.30891      -16.95482       -1.35845
C         -4.57941      -18.06975       -1.49941
C         -5.42576      -19.21775       -1.23068
N         -4.89053      -20.56631       -1.14824
O         -3.67299      -20.69076       -1.34999
O         -5.64695      -21.50684       -0.87789
C         -6.70458      -18.85561       -0.96629
C         -7.78651      -19.74387       -0.55224
C         -8.45541      -19.65252        0.61284
C         -9.49111      -20.59390        1.01913
C        -10.22371      -20.56921        2.14684
C        -11.02277      -21.77963        2.53252
O        -11.35313      -22.71053        1.83115
C        -11.31106      -21.62299        3.97081
C        -12.03980      -22.50395        4.75443
C        -12.28038      -22.15358        6.08909
C        -11.74795      -20.93640        6.61212
C        -12.02350      -20.57660        7.93875
C        -12.80492      -21.40423        8.73695
C        -13.31358      -22.59251        8.23249
C        -13.05749      -22.97267        6.91828
F        -14.06631      -23.38493        9.00776
F        -13.06728      -21.03802        9.99938
C        -10.98357      -20.08636        5.79283
C        -10.79200      -20.40905        4.45607
C        -10.27996      -19.64070        3.28725
C        -10.37010      -18.29350        3.21744
C        -10.77498      -17.68523        1.99249
N        -11.23189      -17.23658        1.04108
C        -10.33775      -17.42816        4.34507
N        -10.27785      -16.72238        5.26523
H          2.71538       -0.01899        9.53938
H          3.08930       -4.85311       10.65342
H          2.17346       -0.58513        7.19986
H          2.56421       -5.44751        8.29289
H          0.33847       -3.70019        2.75154
H         -1.73076       -5.53337        3.14142
H          2.35488       -6.84722        3.27362
H         -1.02975      -10.41679        2.36879
H         -5.15463       -9.18732        2.48186
H         -0.26396      -14.35571        4.26069
H         -1.03732      -16.20252        3.07356
H         -2.41558      -18.16854        0.57619
H         -1.46900      -17.63113        1.91725
H         -1.39093      -16.72171        0.37230
H         -5.91412      -15.52598        1.48180
H         -6.37890      -13.27579       -0.58154
H        -10.86046      -15.59961       -1.27825
H         -9.47672      -17.78912       -1.43373
H         -4.96361      -15.95302       -1.56384
H         -3.53741      -18.12087       -1.77852
H         -8.00537      -20.56129       -1.24131
H         -8.18461      -18.86687        1.31147
H         -9.62756      -21.44932        0.35219
H        -12.44031      -23.41469        4.31773
H        -11.65326      -19.64695        8.36415
H        -13.48141      -23.90515        6.55416
H        -10.59741      -19.16788        6.22400
