112

C        -14.41758        1.82124       -0.75591
C        -15.40094        2.08275       -1.71285
F        -15.93900        3.30757       -1.77893
C        -15.79864        1.10529       -2.61535
F        -16.73954        1.36501       -3.53249
C        -15.18376       -0.13430       -2.61735
C        -14.12035       -0.36714       -1.74308
C        -13.74874        0.58871       -0.74984
C        -12.68591        0.30700        0.15428
C        -11.91201       -0.83070       -0.03136
C        -12.21696       -1.60993       -1.14875
C        -13.34603       -1.49372       -1.93109
C        -11.12714       -2.51792       -1.45413
O        -11.00353       -3.10816       -2.50693
C        -10.26095       -2.54651       -0.23885
C        -10.72608       -1.45540        0.65532
C        -10.27336       -1.15575        1.89869
C         -9.20060       -1.85121        2.52913
N         -8.35144       -2.43872        3.06065
C        -10.89220       -0.16587        2.71658
N        -11.40927        0.62640        3.38606
C         -9.37838       -3.54602       -0.09769
C         -9.13824       -4.60853       -1.06145
C         -8.02578       -4.73928       -1.83019
N         -6.91311       -3.80853       -1.86590
O         -6.82071       -2.94553       -0.98192
O         -6.09108       -3.95858       -2.78090
C         -8.05962       -5.93850       -2.63054
C         -9.19478       -6.59966       -2.36561
C         -9.96922       -5.82886       -1.37468
C        -11.22168       -6.17592       -0.97832
C        -12.25571       -5.28295       -0.46456
C        -13.43528       -5.91462       -0.54578
C        -13.18405       -7.29437       -0.89033
N        -14.20290       -8.30473       -0.74705
O        -14.17177       -9.27925       -1.51157
O        -15.06379       -8.10809        0.11204
C        -11.86609       -7.53234       -1.06306
C        -11.13169       -8.78279       -1.04426
C        -11.40168       -9.90501       -0.35796
C        -10.37022      -10.88153       -0.20275
C         -9.58583      -11.61465       -1.10575
C         -9.82582      -11.64788       -2.54742
O         -9.69753      -12.64465       -3.25003
O        -10.14017      -10.47031       -3.13565
C         -8.52508      -12.36199       -0.40889
C         -8.62707      -12.18992        0.95429
S         -9.96520      -11.26585        1.42552
C         -7.45872      -13.14339       -1.00857
C         -7.03013      -14.41004       -0.75726
N         -7.52498      -15.31179        0.25892
O         -7.82835      -14.86625        1.36893
O         -7.53159      -16.51676       -0.03136
C         -6.08173      -14.87788       -1.75240
C         -5.95375      -13.94670       -2.70543
C         -6.74196      -12.79098       -2.28256
C         -6.65876      -11.60322       -2.90944
C         -6.57821      -10.33024       -2.20677
C         -6.36986       -9.38926       -3.13789
C         -6.42844      -10.00395       -4.45598
N         -6.45946       -9.19754       -5.66210
O         -6.25392       -9.72515       -6.76226
O         -6.70176       -7.99129       -5.50757
C         -6.56987      -11.34848       -4.38222
C         -6.80487      -12.33738       -5.43290
C         -7.66124      -12.21312       -6.46101
C         -7.86022      -13.23371       -7.47347
C         -8.06156      -13.06266       -8.79177
C         -7.98444      -14.26807       -9.69329
O         -8.10513      -15.43648       -9.39007
C         -7.66192      -13.74547      -11.03644
C         -7.46140      -14.48439      -12.19256
C         -7.11436      -13.79946      -13.36683
C         -6.88556      -12.39107      -13.32097
C         -6.49570      -11.72119      -14.49135
C         -6.38932      -12.41412      -15.69336
C         -6.65262      -13.77511      -15.74638
C         -6.99793      -14.47384      -14.59291
F         -6.58416      -14.42912      -16.91408
F         -6.04740      -11.74922      -16.80535
C         -7.09162      -11.67973      -12.12199
C         -7.55841      -12.34907      -10.99817
C         -8.08333      -11.88997       -9.67984
C         -8.77502      -10.73598       -9.51479
C         -9.64127      -10.51333       -8.41213
N        -10.37980      -10.36167       -7.52596
C         -8.81789       -9.70653      -10.50317
N         -8.85371       -8.88239      -11.31323
H        -14.13806        2.61757       -0.07160
H        -15.49260       -0.87477       -3.35091
H        -12.45795        1.03385        0.92979
H        -13.54119       -2.21303       -2.72226
H         -8.73107       -3.62587        0.76971
H         -7.32172       -6.20141       -3.37429
H         -9.52584       -7.45686       -2.93044
H        -12.17123       -4.27016       -0.14374
H        -14.40668       -5.51002       -0.30234
H        -10.14977       -8.73754       -1.49343
H        -12.29447      -10.00203        0.25385
H        -10.31658      -10.70180       -4.06963
H         -8.00088      -12.58548        1.74099
H         -5.54858      -15.81563       -1.69428
H         -5.24600      -13.98638       -3.51784
H         -6.50774      -10.19132       -1.13775
H         -6.13771       -8.35069       -2.95799
H         -6.25049      -13.26648       -5.34378
H         -8.23435      -11.30315       -6.54247
H         -7.75874      -14.25882       -7.10639
H         -7.59591      -15.56311      -12.17784
H         -6.29624      -10.65230      -14.49273
H         -7.19562      -15.53968      -14.67356
H         -6.91206      -10.60777      -12.10759
