122

C         -4.29887       -3.57476        6.50118
N         -5.67714       -3.45235        6.38822
C         -6.58874       -4.53841        6.10546
C         -6.84140       -4.69928        4.61612
C         -6.10564       -2.12262        6.55621
O         -7.22324       -1.65556        6.48100
C         -4.83793       -1.40750        6.80928
C         -3.77769       -2.37690        6.77180
C         -2.51222       -1.67816        7.04600
O         -1.40894       -2.17767        7.12421
N         -2.92585       -0.33321        7.19588
C         -1.98211        0.71454        7.54432
C         -0.92296        0.94591        6.47682
C         -4.31491       -0.19989        7.04699
C         -5.01513        1.05463        7.16765
C         -6.11849        1.37163        6.46977
C         -6.79795        2.64692        6.52441
C         -7.40978        3.20400        7.59829
N         -7.51924        2.59814        8.90520
O         -7.53577        3.37610        9.87047
O         -7.61797        1.36880        8.99130
C         -7.96811        4.49855        7.29527
C         -7.72791        4.77756        6.00648
C         -6.96536        3.66609        5.42216
C         -6.52290        3.60944        4.14179
C         -5.82848        2.46250        3.54104
C         -5.61063        2.72446        2.24444
C         -6.12109        4.04373        1.95789
N         -5.97317        4.67127        0.66289
O         -6.84082        5.46874        0.28106
O         -4.99025        4.32821       -0.01115
C         -6.65591        4.63438        3.05220
C         -7.13341        6.00136        3.08234
C         -6.59545        6.97720        3.83156
C         -7.03279        8.32012        3.67435
S         -7.41945        9.28192        5.03366
C         -7.76361       10.68148        4.07453
C         -8.20561       11.95925        4.48090
C         -8.27678       13.01842        3.56561
C         -8.58928       14.40667        3.58615
C         -8.32339       14.88466        2.32222
O         -7.95494       13.87141        1.49754
C         -7.93557       12.74166        2.25074
C         -7.60350       11.47722        1.80372
C         -7.51009       10.41822        2.72290
C         -7.17878        9.04311        2.50847
C         -8.55564       12.19987        5.88081
C         -9.77699       11.99876        6.43814
N        -10.96924       11.55132        5.75176
O        -10.85715       10.87524        4.72448
O        -12.04941       11.85434        6.27858
C         -9.76930       12.26976        7.85213
C         -8.53530       12.65079        8.19933
C         -7.68469       12.66846        7.01496
C         -6.38303       13.04328        7.02164
C         -5.53532       13.08455        5.82562
C         -4.31535       13.49825        6.18927
C         -4.30889       13.70173        7.61692
N         -3.10414       14.02474        8.33573
O         -2.05830       13.50363        7.91696
O         -3.17467       14.83093        9.26512
C         -5.51804       13.46290        8.18756
C         -5.78000       13.49041        9.62018
C         -6.58741       14.36120       10.25619
C         -6.84814       14.35083       11.67819
N         -8.13283       14.29020       12.23515
C         -9.38729       14.08251       11.54546
C         -9.77655       12.61002       11.49710
C         -8.09686       14.33131       13.64884
O         -9.00855       14.26171       14.44749
C         -6.66167       14.45858       13.93267
C         -5.96285       14.44486       12.67568
C         -4.52503       14.56721       12.97164
O         -3.61501       14.59038       12.17661
N         -4.49354       14.63495       14.37919
C         -3.25593       14.85900       15.09735
C         -2.28765       13.69445       14.96895
C         -5.77918       14.57800       14.92148
C         -6.03281       14.65295       16.33189
C         -6.82271       15.56791       16.90809
H         -3.79087       -4.52063        6.38639
H         -7.54045       -4.32459        6.60601
H         -6.18770       -5.46404        6.53228
H         -7.25315       -3.78107        4.18386
H         -7.55462       -5.51001        4.43778
H         -5.91424       -4.93341        4.08362
H         -1.49459        0.42258        8.48141
H         -2.50051        1.65863        7.72760
H         -0.29000        0.06404        6.34003
H         -0.27333        1.77807        6.76741
H         -1.38081        1.18645        5.51238
H         -4.60566        1.77595        7.86933
H         -6.56609        0.65666        5.78194
H         -8.51313        5.11169        7.99738
H         -8.07878        5.66744        5.51551
H         -5.53342        1.54247        4.01372
H         -5.12699        2.08314        1.52481
H         -7.93661        6.23425        2.38110
H         -5.80508        6.77030        4.54903
H         -8.91786       15.00062        4.42657
H         -8.34707       15.86597        1.86823
H         -7.38580       11.31277        0.75192
H         -6.99049        8.62074        1.52696
H        -10.61526       12.14444        8.51068
H         -8.23840       12.88509        9.19632
H         -5.79538       12.82501        4.81562
H         -3.46049       13.64005        5.54503
H         -5.23888       12.74017       10.20094
H         -7.10995       15.12948        9.69000
H         -9.34004       14.51761       10.54323
H        -10.17025       14.62323       12.09047
H         -9.00558       12.00201       11.01545
H        -10.71346       12.48393       10.94580
H         -9.91767       12.20040       12.50166
H         -3.45630       15.05038       16.15808
H         -2.79473       15.76270       14.68432
H         -2.70908       12.78532       15.40861
H         -1.34884       13.92520       15.48190
H         -2.05088       13.47935       13.92240
H         -5.52740       13.91837       16.95359
H         -7.33830       16.33347       16.33555
H         -6.97035       15.57106       17.98364
