96

C         -7.06861       -5.06802        3.18991
O         -6.29747       -5.99750        3.30178
C         -8.06626       -4.70373        4.19485
C         -8.75443       -3.53672        3.82041
C         -9.68292       -3.02360        4.71583
C         -9.93318       -3.71091        5.91803
C         -9.25353       -4.89696        6.23049
C         -8.29448       -5.40580        5.36944
Br        -9.64200       -5.81058        7.83761
C         -8.22235       -3.07222        2.50201
C         -8.52714       -1.91971        1.85646
C         -9.64076       -1.11361        2.20540
N        -10.58227       -0.47655        2.45191
C         -7.75089       -1.41309        0.77092
N         -7.09537       -0.99460       -0.08935
C         -7.23484       -4.08372        2.06613
C         -6.71276       -4.28628        0.84607
C         -5.76568       -5.31196        0.46773
C         -4.55578       -5.34099        1.05676
C         -3.57439       -6.31792        0.70337
C         -3.82710       -7.32856       -0.32783
C         -4.95300       -7.44063       -1.02998
S         -6.30982       -6.37844       -0.81594
C         -2.65814       -8.09957       -0.41634
C         -1.72542       -7.63339        0.47984
C         -0.50516       -8.31571        0.39759
C         -0.59167       -9.30742       -0.57031
S         -2.13843       -9.38323       -1.34223
C         -2.31792       -6.52511        1.19202
C         -1.67411       -5.75177        2.23104
C         -1.23031       -6.27992        3.38222
C         -0.55850       -5.53478        4.39811
C         -1.05051       -4.35497        5.15606
N         -0.23376       -3.83873        6.03295
C          0.86822       -4.62649        5.92034
C          0.65540       -5.65869        4.93267
C          1.88943       -6.49492        4.81821
S          2.14378       -7.85114        3.89125
C          2.81193       -5.80360        5.77397
C          2.09912       -4.71663        6.41186
N          2.90436       -4.06189        7.28770
C          4.04141       -4.68686        7.15647
C          4.07554       -5.81691        6.19047
C          5.22743       -6.59465        5.84060
C          5.22166       -7.93165        6.00458
C          6.35620       -8.74833        5.66406
C          7.61511       -8.17212        5.17714
C          7.81185       -6.87491        4.94997
S          6.58361       -5.66976        5.20086
C          8.50742       -9.24748        5.00314
C          7.88169      -10.42484        5.33747
C          8.69992      -11.55223        5.16320
C          9.95092      -11.16022        4.70329
S         10.08530       -9.44203        4.49417
C          6.53371      -10.10096        5.74551
C          5.56424      -11.07030        6.20165
C          4.36998      -11.24972        5.61377
C          3.36721      -12.16331        6.11946
C          2.16536      -12.43889        5.59157
C          1.16159      -13.13726        6.46077
O          1.36395      -13.76191        7.48047
C         -0.15259      -12.85932        5.85726
C         -0.00174      -12.12974        4.66346
C          1.45942      -12.05183        4.36410
C          1.99346      -12.01390        3.12041
C          1.21763      -11.81690        1.94899
N          0.60722      -11.69622        0.97342
C          3.34808      -12.36526        2.85783
N          4.43666      -12.68675        2.61119
C         -1.14449      -11.70004        4.00020
C         -2.40263      -12.07824        4.50113
C         -2.51252      -12.85517        5.66591
C         -1.38059      -13.23704        6.37653
Br        -4.21854      -13.40713        6.26562
H        -10.22760       -2.10198        4.54259
H        -10.66735       -3.30796        6.61423
H         -7.73889       -6.31271        5.59004
H         -6.99646       -3.67437       -0.00535
H         -4.30171       -4.63643        1.84185
H         -5.05585       -8.21501       -1.78340
H          0.38733       -8.11345        0.97320
H          0.16924      -10.01113       -0.87377
H         -1.55412       -4.69071        2.01956
H         -1.34997       -7.34473        3.57462
H         -2.06394       -3.97090        4.96365
H          4.95133       -4.43031        7.72137
H          4.35336       -8.43577        6.41808
H          8.77041       -6.52148        4.58241
H          8.42036      -12.58266        5.33983
H         10.79987      -11.78739        4.46746
H          5.85914      -11.65983        7.06702
H          4.12884      -10.64520        4.74355
H          3.60560      -12.60893        7.08851
H         -1.11087      -11.09786        3.09637
H         -3.30101      -11.77774        3.96233
H         -1.44116      -13.81828        7.29147
