104

C         -3.11265        6.79058       -2.47278
C         -1.99517        6.16104       -2.90118
C         -0.87037        6.85988       -3.43980
N          0.04131        7.41894       -3.87940
C         -1.82842        4.75356       -2.77665
N         -1.71319        3.60391       -2.67470
C         -3.33012        8.26297       -2.41669
C         -4.35851        8.51764       -1.50402
C         -4.91848        9.77153       -1.30647
C         -4.41556       10.84102       -2.08144
C         -3.35207       10.59868       -2.96529
C         -2.78988        9.31269       -3.14864
S         -2.88038       12.04479       -3.78547
C         -4.09713       12.94034       -3.03501
C         -4.85570       12.20562       -2.16418
Br        -4.38397       14.76040       -3.36882
C         -4.86605        7.26150       -0.92562
O         -5.59521        7.16702        0.03660
C         -4.28132        6.18458       -1.79021
C         -4.92091        5.02680       -2.04336
C         -6.07463        4.49755       -1.36703
C         -5.84388        3.66981       -0.28717
S         -7.27422        3.06519        0.38077
C         -8.24069        3.93026       -0.73351
C         -7.50373        4.66896       -1.65513
C         -8.26690        5.39589       -2.63831
C         -7.56718        6.05297       -3.82261
C         -7.42234        5.10032       -5.00576
C         -9.73451        5.47764       -2.52785
C        -10.50082        6.47077       -3.39824
C        -11.00855        5.90922       -4.71790
C        -10.44014        4.67016       -1.56346
C        -11.85417        4.48868       -1.19688
C        -12.01438        3.52948       -0.21436
S        -10.54695        2.91037        0.34767
C         -9.64840        3.89451       -0.72059
C        -13.01930        5.15704       -1.73146
C        -14.11154        5.45234       -1.00198
C        -15.24725        6.14868       -1.49035
O        -16.05561        6.88923       -0.62092
C        -15.83392        6.27984       -2.72228
C        -15.70754        5.88511       -4.09306
O        -14.83879        5.20099       -4.60276
N        -16.79513        6.46677       -4.71742
C        -17.60511        7.20042       -3.87517
O        -18.62255        7.80849       -4.15290
C        -16.98121        7.06883       -2.59660
C        -17.11870        7.47621       -1.29869
C        -18.10252        8.30809       -0.70462
C        -17.82338        9.06870        0.36601
C        -18.80798        9.98463        0.91228
C        -18.65681       11.31100        1.04917
C        -19.72418       12.21050        1.42393
C        -19.46073       13.49646        1.14520
C        -18.15009       13.70202        0.55188
S        -17.21476       12.20348        0.64823
C        -17.73242       14.78905       -0.12399
C        -18.53167       15.94912       -0.48267
C        -18.04453       16.61210       -1.54478
C        -16.82613       16.02693       -2.06676
S        -16.16595       14.88746       -0.92422
C        -16.34233       16.25423       -3.29730
C        -15.19901       15.60099       -3.81084
S        -13.57942       16.16897       -3.57532
C        -12.85007       14.87070       -4.50619
C        -13.87026       14.10320       -4.95650
C        -15.13225       14.49004       -4.56849
N        -16.09386       13.63988       -5.02687
N        -15.51900       12.63665       -5.77369
C        -14.17820       12.91941       -5.71061
C        -11.44037       14.80251       -4.62872
C        -10.84992       14.26782       -5.70401
H         -5.76102        9.89964       -0.63222
H         -2.01008        9.18338       -3.89099
H         -5.69369       12.60510       -1.60607
H         -4.52664        4.36083       -2.80650
H         -4.89436        3.38196        0.14436
H         -6.57466        6.39807       -3.52820
H         -8.07086        6.96422       -4.14772
H         -6.78557        4.24552       -4.75910
H         -6.97437        5.62470       -5.85654
H         -8.38260        4.69546       -5.33441
H         -9.91364        7.37649       -3.57266
H        -11.34833        6.85833       -2.82490
H        -10.19387        5.70608       -5.41316
H        -11.66460        6.63818       -5.20562
H        -11.57180        4.98101       -4.58305
H        -12.93426        3.16416        0.22183
H        -12.98875        5.45281       -2.77344
H        -14.14791        5.20373        0.05560
H        -16.97607        6.37512       -5.70231
H        -19.07368        8.37009       -1.18964
H        -16.83013        9.07277        0.81196
H        -19.77692        9.53997        1.13018
H        -20.66316       11.86067        1.82937
H        -20.16886       14.29603        1.30968
H        -19.47111       16.19967       -0.01017
H        -18.53510       17.45491       -2.01268
H        -16.85286       16.94689       -3.95889
H        -17.09280       13.65701       -4.86174
H        -13.48864       12.25077       -6.20989
H        -10.82895       15.21234       -3.82830
H        -11.40935       13.88364       -6.55047
H         -9.76723       14.23263       -5.76970
