99

C         -0.98385       -0.32242       -1.79476
C         -1.56044       -1.42813       -1.26751
C         -0.95396       -2.71977       -1.30241
N         -0.47032       -3.77467       -1.32479
C         -2.81396       -1.40946       -0.57930
N         -3.82961       -1.39470       -0.02255
C          0.37113       -0.26818       -2.44309
C          0.72516        1.06916       -2.62087
C          1.93165        1.50736       -3.15789
C          2.82488        0.53152       -3.64036
C          2.46601       -0.81907       -3.52434
C          1.25379       -1.23999       -2.91070
S          3.66689       -1.83665       -4.24191
C          4.60597       -0.51261       -4.70620
C          4.08608        0.68889       -4.30865
Br         6.19432       -0.67113       -5.68727
C         -0.38195        1.95860       -2.27871
O         -0.37715        3.15045       -2.50255
C         -1.48898        1.08315       -1.74585
C         -2.68133        1.58947       -1.37818
C         -2.96509        2.98729       -1.31346
S         -3.75329        3.76337       -2.64198
C         -3.83077        5.29857       -1.85250
C         -3.16242        5.24335       -0.64501
C         -2.72054        3.90518       -0.30957
C         -2.06770        3.57583        0.88643
C         -1.82525        4.70922        1.68532
F         -1.13387        4.52909        2.82333
C         -2.23506        6.02982        1.34379
F         -1.89567        7.03195        2.17277
C         -2.95039        6.36014        0.17545
C         -4.49314        6.38571       -2.50859
C         -5.82315        6.55785       -2.35480
C         -6.52674        7.70470       -2.89304
C         -7.27661        8.54512       -2.15496
C         -8.00802        9.68340       -2.66624
C         -8.77941       10.28205       -1.74629
C         -8.75748        9.61869       -0.45384
S         -7.48656        8.39981       -0.43145
C         -9.63181        9.80084        0.55258
C        -10.72838       10.74921        0.59201
C        -11.56551       10.56938        1.62381
C        -11.18524        9.47789        2.49186
S         -9.66144        8.79057        1.99100
C        -11.90488        9.06305        3.54563
C        -11.50965        8.00772        4.45800
C        -12.18115        7.52618        5.52216
C        -13.57067        7.96282        5.90500
C        -11.61351        6.45534        6.44001
N        -10.16954        6.53044        6.56605
C         -9.25397        5.92255        5.75148
C         -7.91866        5.99881        5.82539
C         -7.05868        5.28094        4.91565
C         -7.00262        3.94795        4.78210
C         -7.69457        2.85326        5.47621
C         -7.89251        2.74467        6.81252
C         -8.53255        1.62105        7.40830
N         -9.06749        0.71150        7.89205
C         -7.34720        3.68186        7.74149
N         -6.86497        4.39580        8.51969
C         -7.83256        1.75017        4.48367
C         -6.96325        2.02224        3.41995
C         -6.36379        3.36259        3.56276
O         -5.57295        3.88161        2.80361
C         -6.74811        1.15448        2.35757
C         -7.47249       -0.05875        2.34603
C         -8.38976       -0.31059        3.37877
C         -8.59241        0.58741        4.45793
S         -9.19352       -1.82205        3.14180
C         -8.32538       -2.13474        1.72901
C         -7.44085       -1.14222        1.40297
Br        -8.55645       -3.68681        0.70636
H          2.14358        2.56925       -3.25020
H          1.04450       -2.30218       -2.87646
H          4.54771        1.64741       -4.51369
H         -3.50518        0.96524       -1.06008
H         -1.73940        2.59249        1.18967
H         -3.25091        7.37528       -0.04169
H         -3.89120        7.09798       -3.05836
H         -6.39415        5.86773       -1.74790
H         -6.45256        7.85753       -3.96609
H         -7.95100       10.00004       -3.69853
H         -9.40931       11.13312       -1.96160
H        -10.86055       11.53014       -0.14212
H        -12.43733       11.18081        1.81016
H        -12.83813        9.57404        3.75423
H        -10.53025        7.57985        4.25486
H        -14.05211        8.60206        5.16176
H        -13.54378        8.51072        6.85109
H        -14.21598        7.08540        6.02355
H        -11.91778        5.46427        6.08155
H        -12.03107        6.57769        7.44486
H         -9.80604        7.01629        7.38322
H         -9.72438        5.34822        4.95056
H         -7.43949        6.63538        6.56499
H         -6.47809        5.91630        4.24477
H         -6.04940        1.40811        1.56571
H         -9.32238        0.33831        5.22038
H         -6.79341       -1.17011        0.53434
