92

C         -0.78072        1.91958       -4.85462
C          0.52480        2.25373       -4.70741
C          1.57656        1.57834       -5.38056
N          2.44856        1.02580       -5.92636
C          0.96741        3.34148       -3.90095
N          1.32852        4.23858       -3.25477
C         -1.33126        0.87970       -5.78440
C         -2.71025        1.07049       -5.89438
C         -3.54734        0.29873       -6.69248
C         -2.96840       -0.76279       -7.41938
C         -1.58813       -0.98349       -7.29987
C         -0.75123       -0.17392       -6.48653
S         -1.09431       -2.34080       -8.25048
C         -2.66888       -2.61767       -8.79156
C         -3.57907       -1.72323       -8.29642
Br        -3.12513       -4.01707       -9.95037
C         -3.16433        2.15447       -5.01548
O         -4.30979        2.54379       -4.93077
C         -1.94869        2.61606       -4.26396
C         -2.02926        3.40392       -3.17950
C         -3.25755        3.97563       -2.63281
C         -3.77362        5.22324       -3.01800
C         -4.92612        5.78690       -2.41749
C         -5.66398        5.16501       -1.37659
C         -5.20023        3.88045       -0.97871
C         -3.96442        3.27434       -1.61750
N         -3.64676        2.06617       -1.11553
S         -4.79958        1.71080        0.02011
N         -5.74597        3.06371       -0.06343
C         -6.82352        5.78437       -0.75794
O         -7.51556        6.65394       -1.59004
C         -7.46938        5.78180        0.44831
C         -7.47260        5.24467        1.78118
O         -6.69429        4.47456        2.31460
N         -8.56787        5.83476        2.38843
C         -9.25512        6.71590        1.58530
O        -10.23752        7.37724        1.86324
C         -8.54356        6.67624        0.34727
C         -8.59192        7.21556       -0.90881
C         -9.51395        8.14545       -1.45472
C         -9.78982        8.15711       -2.76645
C        -10.76365        9.06138       -3.35756
C        -10.76034        9.48775       -4.63004
C        -11.68846       10.44722       -5.18598
C        -11.35697       10.86567       -6.41784
C        -10.13272       10.26845       -6.92676
S         -9.56168        9.03263       -5.80934
C         -9.45309       10.62363       -8.03321
C         -9.78758       11.69574       -8.95004
C         -8.82803       11.95598       -9.85038
C         -7.67062       11.09786       -9.72735
S         -7.92563        9.88095       -8.51005
C         -6.55824       11.21320      -10.46799
C         -5.36834       10.38979      -10.34829
C         -4.45730       10.15335      -11.30105
C         -4.34928       10.53635      -12.71273
C         -5.33944       10.53023      -13.64030
C         -5.11602       10.84514      -15.01017
N         -4.93627       11.12515      -16.12308
C         -6.66359       10.08485      -13.35009
N         -7.74335        9.70353      -13.16436
C         -2.89368       10.53397      -13.03582
C         -2.22915        9.82591      -12.02892
C         -3.14710        9.53108      -10.91420
O         -2.86319        8.94935       -9.88877
C         -0.89018        9.46243      -12.09810
C         -0.17614        9.82409      -13.26385
C         -0.81734       10.61464      -14.23100
C         -2.16999       11.01479      -14.11776
S          0.24326       10.97806      -15.54476
C          1.47147       10.02019      -14.89737
C          1.15975        9.48789      -13.67475
Br         3.09657        9.71289      -15.77576
H         -4.61426        0.50132       -6.73283
H          0.30237       -0.42024       -6.43029
H         -4.63697       -1.74424       -8.53014
H         -1.17155        3.62891       -2.55511
H         -3.27079        5.78894       -3.80355
H         -5.25039        6.76495       -2.78067
H         -8.82686        5.64562        3.34112
H         -9.99818        8.83602       -0.77041
H         -9.28273        7.46058       -3.43334
H        -11.53761        9.42481       -2.68414
H        -12.54568       10.81507       -4.63849
H        -11.92885       11.60101       -6.96644
H        -10.70972       12.25576       -8.89327
H         -8.89767       12.73866      -10.59289
H         -6.52002       12.01057      -11.20619
H         -5.17674        9.98714       -9.35028
H         -0.43023        8.88064      -11.30382
H         -2.60512       11.63114      -14.89644
H          1.82891        8.85551      -13.10376
