108

C          0.62274        5.69095       -0.92057
C          1.20485        4.76956       -1.71994
C          2.33071        5.06948       -2.54004
N          3.25286        5.31628       -3.20611
C          0.77933        3.40641       -1.75320
N          0.41844        2.30851       -1.77910
C          1.01004        7.12444       -0.74612
C          0.40258        7.60872        0.41684
C          0.43653        8.93756        0.82231
C          1.14916        9.84930        0.01163
C          1.80660        9.36445       -1.13140
C          1.74381        8.00492       -1.53250
S          2.65428       10.63320       -1.94395
C          2.11561       11.78875       -0.83901
C          1.31336       11.27136        0.14257
Br         2.57464       13.60143       -0.94900
C         -0.34087        6.53419        1.08820
O         -0.65536        6.51284        2.25859
C         -0.47078        5.45503        0.05580
C         -1.55514        4.66985       -0.06150
C         -2.70823        4.82883        0.76202
S         -3.95444        5.87846        0.22421
C         -4.92409        5.61914        1.61633
C         -4.34093        4.66073        2.43764
C         -3.04076        4.23952        1.96731
C         -2.19456        3.26356        2.73466
C         -2.64516        3.13070        4.19370
C         -4.16320        2.90056        4.26036
N         -4.57163        2.56804        5.63201
C         -4.92381        4.13847        3.73100
C         -6.09950        6.39021        1.87758
C         -6.92945        6.88420        0.94014
C         -8.03364        7.75449        1.22524
C         -8.06486        8.64658        2.27740
O         -9.17863        9.41195        2.22177
C         -9.87720        9.00451        1.13547
C         -9.27497        7.92288        0.51550
C         -9.76932        7.18234       -0.65043
O         -8.96064        6.72385       -1.45494
C        -11.22528        7.00085       -0.78580
C        -12.30036        7.38179        0.00163
C        -13.56705        7.05031       -0.57269
C        -13.44936        6.29775       -1.72232
S        -11.79872        6.11021       -2.15235
C        -14.47029        5.74514       -2.54884
C        -15.00784        4.52870       -2.36473
C        -16.03159        3.96311       -3.21526
C        -16.35953        2.69975       -2.90771
C        -15.57865        2.14873       -1.81512
S        -14.55805        3.40247       -1.10824
C        -15.51417        0.84872       -1.47588
C        -16.25665       -0.24492       -2.07983
C        -15.63527       -1.42780       -1.95959
C        -14.37920       -1.31995       -1.25312
S        -14.29723        0.19322       -0.38665
C        -13.37744       -2.20506       -1.35159
C        -12.05747       -2.04898       -0.78887
C        -11.67509       -1.95200        0.49168
C        -10.26975       -1.46778        0.69243
O         -9.36820       -1.41541       -0.11926
C        -10.18246       -1.05327        2.09321
C         -9.07470       -0.45663        2.67805
C         -9.10359       -0.21928        4.05288
C        -10.25692       -0.58615        4.80124
C        -10.23525       -0.42970        6.19436
C         -9.10800        0.08883        6.82414
C         -7.99968        0.49438        6.09408
C         -7.99832        0.34597        4.70794
F         -9.09002        0.18883        8.15967
C        -11.38944       -1.12475        4.14879
C        -11.36143       -1.37172        2.78041
C        -12.32680       -2.00432        1.81658
C        -13.49161       -2.61349        2.15448
C        -14.27047       -3.40033        1.25779
N        -14.93662       -4.07875        0.58894
C        -14.03146       -2.58566        3.47149
N        -14.48280       -2.57760        4.53757
H         -0.10288        9.26037        1.70876
H          2.23925        7.71000       -2.45107
H          0.86358       11.86499        0.92957
H         -1.68137        3.99173       -0.89944
H         -1.14067        3.56263        2.71183
H         -2.26922        2.28415        2.24654
H         -2.37956        4.03912        4.75255
H         -2.10241        2.29933        4.65925
H         -4.41496        2.03958        3.62757
H         -4.28982        3.32141        6.26100
H         -4.04664        1.74944        5.94333
H         -4.89241        4.94784        4.47224
H         -5.97856        3.87437        3.58005
H         -6.30560        6.58804        2.92621
H         -6.75790        6.65275       -0.11050
H         -7.38576        8.87755        3.08712
H        -10.77143        9.58084        0.94346
H        -12.22588        7.90324        0.94594
H        -14.51936        7.32700       -0.13387
H        -14.80509        6.35984       -3.38044
H        -16.46636        4.50512       -4.04365
H        -17.07720        2.12104       -3.47206
H        -17.18814       -0.11325       -2.61080
H        -15.99315       -2.35691       -2.38185
H        -13.49496       -3.06789       -2.00570
H        -11.29824       -1.93266       -1.56847
H         -8.20423       -0.21763        2.07272
H        -11.07881       -0.73120        6.80978
H         -7.13726        0.91260        6.60438
H         -7.11948        0.66157        4.14830
H        -12.25394       -1.35542        4.76051
