98

C         -0.88816       -4.27894        1.95864
C         -0.72080       -4.51799        3.26112
C         -1.74559       -4.97320        4.16071
C         -1.29666       -5.20627        5.40231
C          0.13195       -4.97056        5.57143
S          0.81012       -4.32782        4.06989
C          0.85968       -5.24811        6.67308
C          0.35473       -5.81911        7.90912
C          1.30675       -6.13467        8.80004
C          2.64766       -5.84545        8.34609
S          2.61063       -5.03562        6.79112
C          3.76605       -6.19110        9.00713
C          5.12097       -5.97647        8.47128
C          5.84552       -4.80204        8.71316
C          5.53172       -3.81216        9.74912
O          4.70291       -3.96457       10.62834
S          6.57227       -2.41842        9.63822
C          7.51703       -3.14421        8.35429
O          8.53845       -2.63492        7.93383
C          6.96542       -4.44999        7.94387
C          7.41047       -5.27311        6.89419
C          6.77049       -6.51562        6.75665
C          5.66620       -6.86287        7.53623
C          5.16377       -8.20786        7.22778
O          4.34183       -8.81251        7.89097
S          5.97867       -8.89341        5.84537
C          7.10902       -7.56303        5.77905
O          8.05611       -7.53248        5.01493
C          8.31232       -4.82172        5.82491
C          9.59904       -4.46497        5.93831
C         10.39869       -3.95426        4.80329
C          9.98061       -2.92409        3.93138
C          8.68783       -2.19392        3.96978
O          7.78338       -2.34058        4.76872
S          8.54174       -1.06849        2.64412
C         10.19461       -1.32473        2.16688
O         10.75362       -0.62448        1.34254
C         10.80656       -2.46142        2.87898
C         12.06230       -3.03537        2.58058
C         12.42366       -4.10349        3.42172
C         11.67183       -4.49810        4.54253
C         12.37829       -5.50131        5.34875
O         11.99287       -5.96464        6.40237
S         13.93043       -5.91348        4.66495
C         13.53867       -5.03943        3.22208
O         14.04173       -5.28657        2.15157
C         12.90519       -2.55435        1.44421
C         14.25201       -2.48766        1.45357
C         15.07649       -1.93050        0.36376
C         15.49494       -0.59769        0.40182
C         15.19758        0.36068        1.48980
O         14.69655        0.08438        2.55926
S         15.72015        1.96359        1.05897
C         16.79268        1.28447       -0.13721
O         17.85925        1.79062       -0.41656
C         16.31797       -0.03641       -0.59186
C         16.67278       -0.73212       -1.77071
C         16.25356       -2.08128       -1.80058
C         15.53088       -2.67314       -0.73936
C         15.43005       -4.13174       -0.90669
O         15.30705       -4.93813       -0.02239
S         15.72685       -4.59805       -2.55717
C         16.48760       -3.06452       -2.88749
O         17.10849       -2.86666       -3.91145
C         17.45530       -0.13502       -2.89002
C         17.55818        1.16980       -3.18721
C         18.33425        1.72803       -4.27544
C         19.43726        2.48767       -4.15547
C         20.00430        3.22214       -5.26015
C         21.05672        3.97843       -4.92490
C         21.45363        3.87018       -3.52971
S         20.33673        2.79287       -2.68339
C         22.51572        4.49201       -2.97483
C         23.41736        5.39725       -3.67407
C         24.41239        5.88085       -2.91957
C         24.38407        5.39390       -1.56603
S         23.03522        4.32051       -1.29431
C         25.27679        5.71614       -0.62554
H         -1.84701       -4.42252        1.47257
H         -0.06551       -3.94180        1.33563
H         -2.77056       -5.12083        3.85073
H         -1.93712       -5.56507        6.19457
H         -0.69521       -6.00174        8.09044
H          1.10360       -6.59671        9.75630
H          3.70641       -6.70823        9.96179
H          7.81514       -4.76762        4.85579
H         10.10951       -4.56366        6.89506
H         12.36434       -2.18766        0.57261
H         14.83136       -2.79050        2.32368
H         17.98607       -0.82665       -3.54274
H         17.05193        1.94153       -2.61598
H         17.87501        1.61186       -5.25561
H         19.57814        3.20163       -6.25354
H         21.56270        4.61352       -5.63654
H         23.29862        5.66957       -4.71171
H         25.16587        6.56685       -3.28041
H         26.10147        6.38954       -0.83523
H         25.21188        5.31670        0.38116
