99

C         -3.81569       -1.47284        2.28815
C         -3.39176       -2.42046        1.41771
C         -2.56831       -3.52211        1.79429
N         -1.89066       -4.41344        2.09184
C         -3.75257       -2.41144        0.03671
N         -4.03286       -2.40235       -1.08951
C         -3.57936       -1.45423        3.76953
C         -4.36379       -0.44515        4.33263
C         -4.34841       -0.10608        5.68204
C         -3.50461       -0.84648        6.53992
C         -2.74463       -1.88933        5.99533
C         -2.76021       -2.20379        4.61117
S         -1.82480       -2.69388        7.21584
C         -2.39371       -1.65431        8.43975
C         -3.26262       -0.70876        7.94877
C         -5.16117        0.23704        3.30223
O         -6.03021        1.05973        3.50626
C         -4.67280       -0.29572        1.98789
C         -4.86893        0.36758        0.83463
C         -5.60999        1.63299        0.67342
C         -6.98556        1.72342        0.40234
C         -7.64612        2.99445        0.22021
N         -8.97819        3.02436       -0.01550
C         -9.63326        1.85352       -0.21461
C         -8.98890        0.64559       -0.08952
N         -7.67555        0.57003        0.25255
C         -9.63215       -0.60419       -0.36781
N        -10.16603       -1.60440       -0.61496
C        -10.99983        1.96867       -0.64047
N        -12.09858        2.03826       -1.00510
C         -6.93938        4.21990        0.21006
C         -5.52913        4.14921        0.40805
C         -4.85821        2.83716        0.67082
N         -3.53016        2.95123        0.85865
S         -3.16028        4.55784        0.69494
N         -4.65421        5.16983        0.34460
C         -7.56163        5.53797       -0.08613
C         -7.48389        6.56811        0.86864
C         -8.01171        7.83776        0.55995
N         -7.87097        8.87119        1.43257
C         -7.23219        8.64551        2.59291
C         -6.76834        7.39885        2.91729
N         -6.90096        6.35175        2.07728
C         -8.69690        8.02302       -0.65127
C         -8.81184        6.98901       -1.59788
C         -8.19485        5.74545       -1.32756
N         -8.22913        4.74788       -2.25320
C         -8.92988        4.95353       -3.38583
C         -9.56693        6.14020       -3.62949
N         -9.50633        7.16152       -2.75508
C         -9.42049        9.31565       -0.79807
C         -9.66717        9.99934       -1.92381
C        -10.52613       11.20225       -1.99371
C        -10.30103       12.21272       -2.94945
C        -11.21801       13.31112       -3.13575
N        -10.97298       14.22784       -4.10295
C         -9.84145       14.10381       -4.85517
C         -8.95990       13.06918       -4.65456
N         -9.19093       12.12151       -3.71775
C         -7.75615       12.90797       -5.42118
N         -6.78653       12.78953       -6.04960
C         -9.65267       15.07900       -5.88266
N         -9.47159       15.83664       -6.74727
C        -12.38518       13.43520       -2.35280
C        -12.63057       12.46339       -1.34988
C        -11.68601       11.31613       -1.16804
N        -12.10501       10.46937       -0.20968
S        -13.49012       11.08608        0.44017
N        -13.67881       12.42602       -0.50800
C        -13.39867       14.48481       -2.54126
C        -13.36491       15.69297       -1.96603
C        -14.27353       16.77338       -2.27413
C        -13.76559       17.97678       -1.96216
C        -12.42902       17.88902       -1.39077
S        -12.12541       16.23135       -0.86931
C        -11.46971       18.83151       -1.43211
C        -11.57225       20.13460       -2.06418
C        -10.38175       20.70813       -2.29737
C         -9.27085       19.91511       -1.83419
S         -9.80409       18.54114       -0.91700
C         -7.98099       20.14387       -2.08893
H         -4.95575        0.71348        6.05556
H         -2.12242       -3.00879        4.26696
H         -2.06289       -1.78216        9.46188
H         -3.71962        0.04961        8.57323
H         -4.39789        0.06289       -0.09325
H         -7.11211        9.49989        3.24804
H         -6.26710        7.20323        3.85716
H         -8.96966        4.12862       -4.08709
H        -10.14090        6.31224       -4.53224
H         -9.79167        9.70103        0.15037
H         -9.25498        9.66550       -2.87445
H        -14.18212       14.23654       -3.25070
H        -15.22220       16.62216       -2.77035
H        -14.26356       18.91053       -2.18127
H        -12.50944       20.56997       -2.38032
H        -10.25022       21.65036       -2.81002
H         -7.65949       20.98546       -2.69042
H         -7.21031       19.47122       -1.72315
