127

C         -6.09935        3.13853       14.69471
C         -7.10042        2.24487       14.85204
C         -6.99203        1.12019       15.72295
N         -6.90342        0.21237       16.44227
C         -8.37184        2.43957       14.25129
N         -9.42453        2.58482       13.75982
C         -4.82940        3.19900       15.48289
C         -4.43809        4.53089       15.54068
C         -3.30596        4.97980       16.20958
C         -2.46172        4.00559       16.79009
C         -2.82531        2.64437       16.69656
C         -4.02921        2.22636       16.06288
S         -1.64147        1.63747       17.43875
C         -0.66959        2.95660       17.84464
C         -1.19981        4.15975       17.46527
Br         0.97758        2.78572       18.72202
C         -5.35907        5.36935       14.75530
O         -5.46653        6.56885       14.89579
C         -6.16862        4.40854       13.92144
C         -6.61924        4.53007       12.66408
C         -6.57533        5.62186       11.64367
C         -7.08620        5.37336       10.34586
C         -7.05841        6.38419        9.37107
C         -6.49562        7.63860        9.66082
C         -5.99640        7.89950       10.92326
C         -6.03983        6.89122       11.89573
C         -6.61624        8.50309        8.50623
C         -7.35406        7.84637        7.50090
C         -7.59421        6.37829        7.89825
C         -6.65774        5.42758        7.09136
C         -6.75453        5.41144        5.56837
C         -9.09158        5.98100        7.92494
C         -9.90038        6.12047        6.64045
C         -7.73473        8.51840        6.33483
C         -7.35478        9.84735        6.14595
C         -6.47357       10.42536        7.09222
C         -6.12477        9.77362        8.28457
C         -7.76849       10.67102        4.98726
C         -8.52783       10.41056        3.90678
C         -8.63109       11.26325        2.72650
C         -9.88895       11.63537        2.19370
C        -11.25738       11.50076        2.73378
O        -11.43061       11.03652        3.86737
C        -12.50379       11.98999        1.94128
F        -12.32094       12.43238        0.66419
F        -13.44112       11.00294        1.83111
F        -13.13343       13.02485        2.58114
S         -9.69825       12.37874        0.67618
C         -8.04983       12.52986        0.89297
C         -7.49465       11.78687        1.90142
C         -6.00105       11.73324        2.00280
C         -5.08754       11.70410        0.89557
N         -5.16506       11.99465       -0.49049
C         -5.47534       13.37535       -0.90465
C         -4.79704       14.01253       -2.10558
C         -4.16289       11.26513       -1.13944
C         -3.11683       11.31613       -0.20634
C         -3.69671       11.56457        1.07396
C         -3.13101       11.57408        2.36138
C         -3.97060       11.67242        3.44798
C         -5.34539       11.76471        3.24915
C         -1.80561       11.02335       -0.60065
C         -1.59788       10.56966       -1.89543
C         -2.68004       10.38483       -2.78369
C         -4.01208       10.72098       -2.44724
C         -5.19701       10.58691       -3.35873
C         -5.41396        9.71601       -4.37986
C         -6.58433        9.78646       -5.28801
C         -7.45567        8.86675       -5.77059
C         -7.73774        7.44225       -5.51446
C         -7.37615        6.77839       -4.39724
C         -8.33993        6.03627       -3.65421
N         -9.18979        5.49269       -3.07977
C         -6.01774        6.36630       -4.32253
N         -4.93285        5.94913       -4.37591
C         -8.89469        7.01628       -6.35003
C         -9.36803        8.08956       -7.08534
C         -8.56070        9.29801       -6.75163
O         -8.77038       10.41745       -7.17384
C        -10.42462        7.94723       -7.99975
C        -11.01617        6.65794       -8.18893
C        -10.49904        5.58301       -7.45047
C         -9.42289        5.73777       -6.54823
S        -11.32995        4.10689       -7.79338
C        -12.34001        4.86449       -8.91160
C        -12.08649        6.20645       -9.04824
Br       -13.66678        3.93957       -9.86438
H         -3.05364        6.03693       16.23229
H         -4.24865        1.17048       16.01769
H         -0.71578        5.11367       17.63773
H         -7.06268        3.63683       12.22522
H         -7.50729        4.40410       10.08786
H         -5.59602        8.87167       11.18953
H         -5.63874        7.15742       12.86167
H         -6.79503        4.39844        7.44652
H         -5.61272        5.68239        7.32327
H         -7.65813        4.91152        5.21877
H         -5.91376        4.84496        5.15405
H         -6.69962        6.40780        5.12602
H         -9.61223        6.57881        8.68738
H         -9.17269        4.93897        8.25865
H        -10.18141        7.16153        6.45723
H        -10.83208        5.55247        6.72364
H         -9.38273        5.74888        5.75999
H         -8.30345        8.00714        5.56784
H         -6.04184       11.40816        6.90833
H         -5.48073       10.26557        9.00699
H         -7.39077       11.67991        5.06463
H         -9.13178        9.50464        3.89926
H         -7.58347       13.17958        0.20373
H         -5.29674       14.01389       -0.02649
H         -6.52377       13.38685       -1.17757
H         -3.71392       13.88913       -2.11653
H         -5.02328       15.08679       -2.10442
H         -5.22215       13.60691       -3.02809
H         -2.05857       11.48812        2.50933
H         -3.56970       11.67047        4.45887
H         -5.88905       11.94004        4.15126
H         -0.98560       11.10440        0.10998
H         -0.58163       10.31975       -2.19804
H         -2.44606        9.98684       -3.76586
H         -5.99122       11.29202       -3.12484
H         -4.63960        9.00110       -4.65591
H         -6.72837       10.81019       -5.65324
H        -10.78621        8.80210       -8.56661
H         -9.03527        4.86033       -6.04068
H        -12.63482        6.84146       -9.73785
