123

C         -4.21762       -0.04327       -0.14697
C         -3.70381       -0.93127        0.73319
C         -3.46954       -2.28654        0.39617
N         -3.28290       -3.39906        0.11427
C         -3.30011       -0.54930        2.05132
N         -2.97691       -0.23642        3.12060
C         -4.54220       -0.27036       -1.58929
C         -4.57734        0.97799       -2.22019
C         -4.91938        1.17410       -3.55087
C         -5.24187        0.03386       -4.31639
C         -5.18434       -1.22978       -3.70491
C         -4.84163       -1.40563       -2.33570
S         -5.58759       -2.47551       -4.83697
C         -5.85467       -1.35916       -6.07551
C         -5.65465       -0.06197       -5.68896
Br        -6.37355       -1.84436       -7.80940
C         -4.27272        2.05027       -1.26235
O         -3.91869        3.17317       -1.54782
C         -4.39056        1.40363        0.08225
C         -4.83173        2.03246        1.18354
C         -5.20106        3.44842        1.25364
C         -6.54365        3.83651        1.07904
C         -6.85788        5.18680        1.15871
C         -5.84130        6.13158        1.41206
C         -4.52270        5.75427        1.59991
C         -4.20375        4.40285        1.52131
C         -6.40858        7.44996        1.44952
C         -7.79735        7.36293        1.23833
C         -8.22049        5.90472        1.00520
C         -8.74204        5.67928       -0.44802
C         -9.97155        6.48180       -0.87416
C         -9.26393        5.42141        2.04757
C         -8.81631        5.47172        3.50711
C         -8.56943        8.50916        1.27468
C         -7.93234        9.74439        1.46965
C         -6.54388        9.81825        1.65568
C         -5.77483        8.66316        1.66130
C         -8.75113       10.94596        1.39736
C         -8.56037       12.03944        2.14873
C         -9.47051       13.19429        2.12718
C        -10.86434       13.11773        1.94422
C        -11.71298       14.27058        2.00926
N        -13.04611       14.08429        1.83710
C        -13.53789       12.85361        1.53706
C        -12.71834       11.76764        1.44804
N        -11.39679       11.89962        1.68219
C        -13.15766       10.45269        1.08444
N        -13.51137        9.38936        0.77818
C        -14.94400       12.77923        1.29125
N        -16.08132       12.68427        1.07949
C        -11.19792       15.58396        2.22086
C         -9.77940       15.69539        2.37583
C         -8.90625       14.47564        2.35311
N         -7.60259       14.75307        2.54569
S         -7.46921       16.38868        2.69556
N         -9.05449       16.81851        2.52645
C        -12.01399       16.82997        2.17590
S        -13.34204       16.91076        1.07259
C        -13.72619       18.52890        1.46281
C        -12.67211       19.07851        2.17128
C        -11.91798       18.04579        2.85531
C        -11.09261       18.43756        4.06617
C        -11.12302       17.38045        5.09544
N        -11.14790       16.55000        5.90785
C        -11.67250       19.73456        4.68074
C        -11.66087       20.87472        3.66401
C        -12.31686       20.54457        2.30661
O        -11.39359       20.84432        1.24284
C        -11.05590       22.21646        1.10869
C        -14.93790       19.07883        0.95856
C        -15.61798       20.00308        1.65300
C        -16.86787       20.56358        1.19532
C        -17.07946       21.86026        0.92873
C        -18.34938       22.39030        0.50267
C        -18.34441       23.71766        0.32727
C        -17.06351       24.34903        0.60380
S        -15.87336       23.12115        1.03882
C        -16.81387       25.67267        0.56459
C        -17.78569       26.70793        0.25401
C        -17.30116       27.95453        0.32737
C        -15.90951       28.00134        0.69116
S        -15.24670       26.40724        0.92006
C        -15.19332       29.11753        0.84497
H         -4.96157        2.17507       -3.97102
H         -4.84671       -2.40708       -1.91772
H         -5.78481        0.79203       -6.34346
H         -5.03116        1.50294        2.10978
H         -7.31897        3.10125        0.89033
H         -3.75261        6.49009        1.80283
H         -3.16951        4.10106        1.66610
H         -8.98515        4.61566       -0.57704
H         -7.94352        5.89370       -1.17099
H        -10.80878        6.35984       -0.18188
H        -10.30968        6.15097       -1.86213
H         -9.74438        7.54706       -0.96925
H         -9.55553        4.38705        1.82251
H        -10.17891        6.02182        1.96743
H         -7.97440        4.79884        3.69318
H         -9.63853        5.15398        4.15736
H         -8.52935        6.48287        3.80937
H         -9.64720        8.45716        1.14716
H         -6.05060       10.77725        1.78843
H         -4.70402        8.72447        1.81548
H         -9.57718       10.86649        0.69752
H         -7.71882       12.10478        2.83555
H        -10.06286       18.65105        3.76580
H        -11.08072       20.03711        5.55417
H        -12.69923       19.57602        5.03828
H        -10.61388       21.16724        3.52620
H        -12.16469       21.74922        4.09404
H        -13.20425       21.16832        2.16762
H        -10.46459       22.32934        0.19560
H        -10.42928       22.54661        1.94125
H        -11.94804       22.84281        1.03561
H        -15.34395       18.68536        0.02950
H        -15.26311       20.37688        2.61061
H        -17.68365       19.85085        1.09038
H        -19.21946       21.76660        0.35015
H        -19.22140       24.26483        0.01430
H        -18.81446       26.49952       -0.00060
H        -17.88754       28.84302        0.13945
H        -15.63440       30.09786        0.70052
H        -14.14449       29.08328        1.12224
