121

C         -8.17376       15.51515        1.82344
C         -7.38449       16.48427        1.29978
C         -7.38157       17.82839        1.78356
N         -7.37491       18.91547        2.17064
C         -6.44185       16.23291        0.25841
N         -5.68144       16.02694       -0.59157
C         -9.10256       15.66506        2.98939
C         -9.42044       14.39164        3.46465
C        -10.26871       14.14107        4.53752
C        -10.90370       15.24542        5.14040
C        -10.62189       16.53159        4.65473
C         -9.70993       16.76505        3.58933
S        -11.54526       17.72423        5.50291
C        -12.31027       16.55434        6.45005
C        -11.87770       15.28155        6.19480
Br       -13.63527       16.95258        7.71283
C         -8.83998       13.35101        2.61105
O         -8.93910       12.16169        2.82395
C         -8.17830       14.07334        1.46825
C         -7.84345       13.44906        0.32224
C         -7.98272       12.04716        0.06204
C         -6.93808       11.20260        0.37059
S         -7.34663        9.57928        0.12163
C         -8.91578        9.98931       -0.42663
C         -9.14469       11.35746       -0.48603
C        -10.40753       11.78520       -1.02664
C        -10.66127       13.26905       -1.31160
C        -10.21282       13.74959       -2.69116
C        -11.44780       10.78199       -1.32780
C        -12.78379       11.25521       -1.89271
C        -12.78061       11.22262       -3.41255
C        -11.17906        9.36912       -1.17321
C        -11.95942        8.12989       -1.32475
C        -11.17088        7.00303       -1.15914
S         -9.57044        7.35944       -0.77147
C         -9.88347        9.03572       -0.78302
C        -13.39083        7.95564       -1.45795
C        -13.96759        6.82047       -1.89420
C        -15.30889        6.40487       -1.61792
S        -16.10627        5.52894       -2.85499
C        -16.08206        6.40870       -0.45986
C        -15.76019        7.11649        0.79412
O        -15.07597        8.12607        0.88200
C        -16.39941        6.51035        1.94940
C        -16.10208        6.71111        3.28127
N        -16.90463        5.88064        4.01916
C        -16.78826        5.68803        5.45701
C        -17.63105        6.66624        6.25480
C        -17.76848        5.21423        3.18086
C        -17.47043        5.57850        1.87853
C        -18.07178        5.13564        0.61828
O        -19.13593        4.53251        0.55441
C        -17.22838        5.48345       -0.55619
C        -17.37449        4.95688       -1.83772
C        -18.37045        4.06658       -2.36896
C        -18.09345        3.19021       -3.35032
C        -19.03638        2.25500       -3.86092
O        -18.58053        1.06284       -4.42093
C        -19.68744        0.39319       -4.82312
C        -20.01862       -0.80014       -5.46475
C        -19.09728       -1.81442       -5.90551
O        -19.44200       -2.84480       -6.46613
N        -17.77522       -1.57292       -5.64566
C        -21.40837       -0.71059       -5.60216
O        -21.87058        0.44880       -4.96440
C        -20.76734        1.10886       -4.54055
C        -20.42790        2.31854       -3.93537
C        -22.31253       -1.60954       -6.24582
C        -23.49125       -1.22998       -6.76219
C        -24.19313        0.05719       -6.87709
C        -23.69068        1.23366       -7.32853
C        -24.46835        2.42251       -7.43288
N        -25.09999        3.39688       -7.49447
C        -22.36732        1.33862       -7.85925
N        -21.32082        1.44042       -8.34270
C        -25.64717       -0.25249       -6.78372
C        -25.80947       -1.62071       -7.02614
C        -24.49772       -2.29518       -7.07772
O        -24.30457       -3.47508       -7.27910
C        -27.04786       -2.23436       -7.16840
C        -28.19910       -1.41858       -7.06332
C        -28.03789       -0.06079       -6.74349
C        -26.76751        0.53853       -6.57081
S        -29.56411        0.73931       -6.62367
C        -30.40002       -0.65600       -7.07006
C        -29.58746       -1.74364       -7.24974
Br       -32.25809       -0.70265       -7.30101
H        -10.47732       13.12172        4.85203
H         -9.56134       17.78420        3.25041
H        -12.25447       14.40114        6.70221
H         -7.45259       14.00316       -0.52364
H         -5.96463       11.45215        0.76969
H        -10.15061       13.88204       -0.56802
H        -11.70507       13.54050       -1.15328
H         -9.12491       13.84670       -2.75148
H        -10.64598       14.73484       -2.90230
H        -10.51387       13.08560       -3.49980
H        -13.04834       12.25014       -1.53242
H        -13.60759       10.64740       -1.51789
H        -11.95820       11.80152       -3.82822
H        -13.70777       11.64201       -3.81265
H        -12.66637       10.20249       -3.78988
H        -11.46284        5.96242       -1.18801
H        -14.01292        8.72667       -1.02218
H        -13.35000        6.07555       -2.39590
H        -15.35900        7.34665        3.74925
H        -15.72792        5.79892        5.71988
H        -17.07553        4.65526        5.68152
H        -17.35144        7.70193        6.03622
H        -17.49372        6.49718        7.32799
H        -18.69410        6.54773        6.02382
H        -18.50109        4.51893        3.57502
H        -19.35899        4.08857       -1.91523
H        -17.09845        3.10823       -3.77825
H        -17.44778       -0.71898       -5.21338
H        -17.09692       -2.25515       -5.94935
H        -21.07344        3.12318       -3.62022
H        -22.04487       -2.66690       -6.24042
H        -27.11982       -3.29785       -7.37984
H        -26.70992        1.59043       -6.31412
H        -29.94844       -2.72630       -7.52852
