97

C        -27.18938       -0.36931       -5.28234
C        -28.40866        0.20750       -5.40437
C        -29.56257       -0.53053       -5.77237
N        -30.50068       -1.13410       -6.05865
C        -28.63439        1.58824       -5.11298
N        -28.80507        2.70892       -4.88744
C        -26.84571       -1.81180       -5.43375
C        -25.62359       -2.03626       -4.79112
C        -24.95298       -3.25176       -4.78257
C        -25.54499       -4.32422       -5.48327
C        -26.78081       -4.11739       -6.11816
C        -27.44932       -2.86484       -6.10840
S        -27.32659       -5.56354       -6.89255
C        -25.94500       -6.41261       -6.42536
C        -25.06359       -5.66116       -5.69670
Br       -25.64700       -8.20811       -6.86929
C        -25.10301       -0.78734       -4.22515
O        -24.20388       -0.69433       -3.41614
C        -25.95438        0.29148       -4.82333
C        -25.50577        1.53118       -5.10389
C        -24.17547        1.91952       -4.81634
S        -23.77541        2.75625       -3.33509
C        -22.09095        2.90719       -3.73691
C        -21.92437        2.32700       -4.93466
C        -23.02315        1.78830       -5.53907
N        -22.73556        1.25441       -6.74932
C        -21.41182        1.51834       -6.78455
O        -20.81637        2.18123       -5.70466
C        -21.15681        3.56423       -2.91038
C        -19.86195        3.71926       -3.24338
C        -18.95755        4.41746       -2.41468
S        -19.44994        5.77968       -1.44878
C        -17.90741        5.99571       -0.70471
C        -17.08075        5.10272       -1.28367
C        -17.61148        4.27222       -2.22677
N        -16.68876        3.42760       -2.74358
C        -15.61619        3.84579       -2.04787
O        -15.75340        4.87527       -1.10241
C        -17.60195        6.90772        0.32639
C        -18.33950        8.02513        0.49141
C        -18.08903        9.01474        1.47637
C        -17.19131       10.00390        1.13718
S        -16.97109       11.11212        2.38184
C        -18.07387       10.28141        3.38987
C        -18.65631        9.15051        2.81279
C        -19.64621        8.43768        3.60095
C        -20.73601        7.56231        2.93485
C        -20.48477        6.25779        2.17872
C        -19.82370        8.83614        5.01583
C        -20.42488        7.93943        6.09794
C        -20.73726        6.47080        5.86992
C        -19.29202       10.09832        5.49148
C        -19.48884       10.90718        6.69679
C        -18.64488       11.99315        6.77333
S        -17.70418       12.14912        5.37563
C        -18.39803       10.75285        4.66795
C        -20.45733       10.69697        7.72746
C        -21.61707       11.37681        7.80668
C        -22.61651       11.05889        8.77539
O        -23.84300       11.72985        8.80473
C        -24.57419       11.14129        9.78930
C        -25.84358       11.19907       10.37754
C        -26.91282       12.09743       10.06443
O        -26.76196       13.19589        9.54495
N        -28.16330       11.64383       10.38171
C        -25.76701       10.19306       11.32231
O        -24.56175        9.54445       11.32136
C        -23.84926       10.16921       10.34751
C        -22.59278       10.07201        9.76271
H        -23.98880       -3.35045       -4.29097
H        -28.38071       -2.76303       -6.65455
H        -24.11656       -6.03164       -5.32373
H        -26.09014        2.23932       -5.66719
H        -20.72225        1.26717       -7.57741
H        -21.53405        3.95354       -1.97019
H        -19.44508        3.30779       -4.15929
H        -14.61044        3.45418       -2.13773
H        -16.78357        6.67781        1.00762
H        -19.13629        8.26864       -0.20609
H        -16.64890       10.12457        0.20901
H        -21.22813        8.23044        2.21550
H        -21.52499        7.34409        3.65573
H        -19.96068        6.42892        1.25241
H        -21.44549        5.83297        1.85266
H        -19.94958        5.48909        2.73907
H        -21.31197        8.41992        6.52421
H        -19.66491        7.93147        6.89680
H        -21.76750        6.34857        5.52330
H        -20.66773        5.92552        6.81938
H        -20.04982        5.99708        5.16737
H        -18.55572       12.72343        7.56750
H        -20.20954        9.92929        8.45310
H        -21.85358       12.16084        7.08991
H        -28.34899       10.69715       10.67728
H        -28.94413       12.22548       10.10838
H        -26.45916        9.82871       12.06977
H        -21.79986        9.38140        9.99342
