88

C         10.83517       -4.16737       -3.89957
C         11.02560       -3.64728       -2.68645
C         11.77897       -2.45825       -2.39203
C         11.78597       -2.14132       -1.09238
C         11.01426       -3.04954       -0.25881
S         10.35004       -4.35612       -1.24933
C         10.77510       -2.90656        1.05874
C         11.27724       -1.84958        1.91805
C         10.78257       -1.87506        3.16427
C          9.84349       -2.94989        3.39127
S          9.70631       -3.96200        1.97174
C          9.13331       -3.10896        4.52169
C          8.14469       -4.14489        4.77511
C          8.36927       -5.46961        4.82996
C          7.33669       -6.47468        4.92882
C          7.78002       -7.71923        4.68286
C          9.20396       -7.78800        4.39968
S          9.94167       -6.22097        4.73424
C          9.88766       -8.82267        3.87228
C          9.35821      -10.08426        3.38950
C         10.18983      -10.71624        2.54019
C         11.41792       -9.97904        2.29002
S         11.61113       -8.76857        3.52876
C         12.22308      -10.17613        1.22881
C         13.32300       -9.36324        0.82700
S         14.73369      -10.01151        0.01304
C         15.49964       -8.44625       -0.22459
C         14.66231       -7.53875        0.33296
C         13.48690       -8.02259        0.85692
N         12.69844       -7.00994        1.32382
N         13.33620       -5.80286        1.19326
C         14.51778       -6.13396        0.59197
C         16.73950       -8.31236       -0.91445
C         17.02592       -7.18186       -1.57695
C         18.24181       -6.93774       -2.33931
C         18.51076       -5.81589       -3.02275
C         19.67372       -5.60718       -3.85954
C         19.62234       -4.48186       -4.58499
C         18.40575       -3.70911       -4.38569
S         17.46849       -4.41555       -3.07420
C         17.97413       -2.66833       -5.11915
C         18.63096       -2.09214       -6.27840
C         17.85084       -1.25256       -6.97754
C         16.52593       -1.10366       -6.42049
S         16.41255       -1.88450       -4.86708
C         15.50780       -0.47383       -7.02452
C         14.15964       -0.37338       -6.49262
C         13.51805        0.77098       -6.21866
C         12.19285        0.84740       -5.65380
C         11.80179        2.09843       -5.37204
C         12.79718        3.11240       -5.68482
S         14.19670        2.36008       -6.45084
C         12.71229        4.42964       -5.41487
C         11.61526        5.09973       -4.73725
C         11.81815        6.40930       -4.53365
C         13.08064        6.87554       -5.04522
S         13.97782        5.59891       -5.81103
C         13.54337        8.12437       -4.95634
H         11.25629       -3.70840       -4.78628
H         10.25119       -5.07227       -4.03703
H         12.28418       -1.88234       -3.15569
H         12.29523       -1.27198       -0.70201
H         11.98234       -1.10280        1.58374
H         11.04394       -1.15857        3.92999
H          9.23630       -2.37737        5.31971
H          7.13165       -3.76778        4.89292
H          6.30532       -6.23035        5.13914
H          7.13946       -8.58891        4.68294
H          8.37261      -10.44607        3.64429
H          9.94810      -11.64313        2.03765
H         11.99638      -11.01457        0.57214
H         11.80406       -7.07856        1.79830
H         15.21637       -5.33699        0.37496
H         17.43180       -9.15080       -0.91135
H         16.28543       -6.38524       -1.59911
H         18.95472       -7.75982       -2.37109
H         20.48823       -6.31782       -3.90899
H         20.39541       -4.19095       -5.28400
H         19.63775       -2.34532       -6.57509
H         18.15924       -0.75708       -7.88780
H         15.66058       -0.00846       -7.99570
H         13.67518       -1.32437       -6.27781
H         11.58528       -0.02845       -5.46991
H         10.83730        2.32730       -4.94199
H         10.72256        4.58909       -4.40675
H         11.11750        7.06055       -4.03062
H         12.97546        8.90929       -4.46964
H         14.51163        8.39556       -5.36726
