82

C         -1.55104        2.33859        3.87311
O         -2.57354        1.44754        3.94647
C         -2.23677        0.39609        3.15498
C         -1.00510        0.60218        2.57727
C         -0.56130        1.86591        3.03922
C          0.66343        2.51091        2.71104
C          0.86104        3.83851        2.70308
C          2.11480        4.45452        2.34190
C          2.71855        4.25623        1.15966
C          3.98222        4.85918        0.77820
C          4.84157        4.34156       -0.14028
O          6.03983        4.98891       -0.48217
C          6.25650        6.17876        0.11656
C          5.34799        6.73215        1.03624
C          5.73189        7.96212        1.50179
S          7.24591        8.42256        0.82208
C          7.35526        6.96940       -0.09616
O          4.21399        6.09706        1.39745
C          4.65511        3.07162       -0.82005
C          5.18929        2.77851       -2.01616
C          4.88524        1.54678       -2.65520
S          3.50224        1.47325       -3.65580
C          3.77972       -0.16792       -4.11732
C          4.92119       -0.64506       -3.48163
C          5.54738        0.33434       -2.64308
S          7.00395        0.04432       -1.68099
C          8.22308       -0.15275       -3.00944
C          8.27634       -1.56161       -3.59567
C          7.12211       -1.92977       -4.52817
S          5.54815       -2.29001       -3.68907
C          2.86749       -0.83165       -5.00610
C          2.24514       -0.17816       -6.00254
C          1.31766       -0.78312       -6.94092
C          1.08300       -0.32780       -8.18360
C          0.18220       -0.93764       -9.13326
C          0.27176       -0.42316      -10.37017
C          1.26313        0.63338      -10.49777
S          1.90997        1.03031       -8.90700
C          1.71012        1.19767      -11.63679
C          1.29287        0.88240      -12.99057
C          2.07622        1.42016      -13.93877
C          3.17210        2.20276      -13.40893
S          3.00999        2.39068      -11.67989
C          4.19073        2.68056      -14.14296
C          5.27872        3.38090      -13.57198
S          5.38424        5.10517      -13.44133
C          6.91643        5.05483      -12.60567
C          7.28125        3.76188      -12.49347
C          6.39366        2.85106      -13.02908
O          6.73056        1.53240      -12.93704
C          7.93589        1.65860      -12.27098
N          8.61645        0.42823      -11.98305
O          9.69196        0.52572      -11.37688
O          8.09275       -0.62832      -12.36081
C          8.32058        2.97302      -11.97546
H         -1.67227        3.23514        4.46467
H         -2.96328       -0.40259        3.10612
H         -0.50286       -0.07060        1.89640
H          1.48900        1.85794        2.43079
H          0.06842        4.52781        2.98336
H          2.54855        5.11686        3.08852
H          2.24569        3.60661        0.42548
H          5.21450        8.60887        2.19586
H          8.20469        6.78087       -0.73707
H          4.01666        2.33900       -0.33141
H          5.80835        3.49003       -2.55489
H          8.05606        0.59497       -3.79263
H          9.19922        0.07293       -2.56527
H          8.40025       -2.31276       -2.80529
H          9.19472       -1.61401       -4.19693
H          7.39774       -2.84655       -5.06149
H          6.97352       -1.15760       -5.29089
H          2.73150       -1.90320       -4.88521
H          2.43882        0.88162       -6.15795
H          0.79382       -1.66992       -6.59097
H         -0.47778       -1.75136       -8.86560
H         -0.31281       -0.78723      -11.20272
H          0.44908        0.24547      -13.21528
H          1.93210        1.26250      -14.99941
H          4.22399        2.50204      -15.21157
H          7.40616        5.95949      -12.27341
H          9.22104        3.27748      -11.46273
