83

C          1.94942       -2.45712       -6.57903
S          0.51105       -2.53645       -5.65306
C          1.07087       -3.89140       -4.72075
C          2.33483       -4.26902       -5.14331
C          2.82823       -3.44258       -6.21335
C          4.05486       -3.61418       -6.84972
C          4.79069       -4.71059       -6.33756
O          5.97613       -4.87672       -7.02553
C          7.06538       -5.46333       -6.32664
C          4.30672       -5.55558       -5.26863
O          5.05643       -6.67643       -4.96879
C          5.17191       -6.96922       -3.57950
C          3.05376       -5.35549       -4.62042
C          0.18966       -4.40729       -3.72210
C          0.24007       -4.02952       -2.43568
C         -0.67387       -4.47942       -1.40806
C         -0.35428       -4.05845       -0.17405
C          0.88018       -3.29437       -0.13148
S          1.41926       -2.93370       -1.77147
C          1.61229       -3.02115        0.95901
C          1.30457       -3.33350        2.34362
C          2.39572       -3.39253        3.12635
C          3.61777       -3.17613        2.37999
S          3.26155       -2.42801        0.85029
C          4.81286       -3.67011        2.73194
C          5.97359       -3.80220        1.86903
C          6.76214       -2.81105        1.38193
O          7.86799       -3.07832        0.55593
C          8.09041       -4.37959        0.27099
C          7.27765       -5.40706        0.78183
C          7.67012       -6.65726        0.37926
S          9.05662       -6.56093       -0.63784
C          9.10957       -4.84303       -0.52007
O          6.22657       -5.15583        1.59038
C          6.57682       -1.39401        1.62901
C          7.58500       -0.57612        1.95405
N          7.51603        0.78029        2.19148
C          8.51604        1.60154        2.62454
C          9.79209        1.17870        2.94335
S         10.80315        2.44688        3.47287
C          9.55006        3.58667        3.26835
C          8.37969        3.02590        2.79512
N          7.23848        3.73617        2.54042
C          7.13585        5.09929        2.34056
C          6.02627        5.82379        2.13532
C          6.06371        7.22252        1.90323
S          4.74436        8.28651        2.29972
C          5.54937        9.70595        1.69299
C          6.74759        9.31950        1.20909
C          7.02880        7.97662        1.32749
O          8.22891        7.55626        0.83153
C          8.71756        8.76341        0.36866
N         10.00721        8.70414       -0.25528
O         10.40450        9.75003       -0.78689
O         10.62544        7.63399       -0.20887
C          7.87197        9.86195        0.56630
H          2.05768       -1.70282       -7.34607
H          4.42457       -3.00158       -7.66185
H          7.98837       -5.10142       -6.79152
H          7.04808       -6.55081       -6.44439
H          7.10015       -5.17070       -5.27214
H          5.40555       -6.07321       -2.99471
H          6.00213       -7.67300       -3.46048
H          4.26867       -7.46072       -3.20696
H          2.67303       -6.00266       -3.84454
H         -0.57457       -5.10187       -4.05652
H         -1.52351       -5.11224       -1.62343
H         -0.90975       -4.33151        0.71180
H          0.30379       -3.53870        2.69585
H          2.38330       -3.66862        4.17164
H          4.90218       -4.21671        3.66849
H          7.22887       -7.61295        0.62382
H          9.87598       -4.27682       -1.03012
H          5.57527       -0.99177        1.54479
H          8.57807       -0.99906        2.05887
H          6.60571        1.17512        1.98830
H         10.20015        0.18055        2.90126
H          9.74456        4.61820        3.51997
H          6.36987        3.23686        2.37947
H          8.10424        5.59311        2.34286
H          5.05488        5.33865        2.16928
H          5.08018       10.67939        1.72772
H          8.06752       10.88260        0.26748
