105

C         11.79527       -1.10667        3.01853
S         11.04738       -2.44009        2.23240
C         12.51203       -3.36391        2.15601
C         13.55072       -2.58362        2.64014
C         13.13581       -1.32789        3.19059
C         13.99203       -0.41159        3.80673
C         15.32640       -0.89281        3.88105
O         16.33674       -0.13839        4.45125
C         15.95433        0.71263        5.52563
C         15.75054       -2.16342        3.32477
O         17.08103       -2.48930        3.49621
C         17.44103       -3.87017        3.47807
C         14.87613       -3.02450        2.63415
C         12.60872       -4.68065        1.59758
C         11.75830       -5.71047        1.70052
C         12.01139       -6.98738        1.05477
C         10.89126       -7.69870        0.85417
C          9.70928       -6.97727        1.29657
S         10.19996       -5.75542        2.47494
C          8.51529       -6.97341        0.67549
C          8.18223       -7.69355       -0.53623
C          7.30630       -7.02161       -1.30472
C          6.87306       -5.74601       -0.72595
S          7.26226       -5.78314        0.98036
C          6.36404       -4.73774       -1.47168
C          6.01043       -3.36643       -1.13090
S          6.10474       -2.82914        0.53136
C          5.70858       -1.20357        0.24126
C          5.48395       -1.03436       -1.10503
C          5.61428       -2.26563       -1.91763
C          5.31328       -2.17448       -3.31515
C          4.95839       -3.23559       -4.27904
O          5.60063       -4.25972       -4.40565
C          3.77848       -2.92672       -5.19949
C          5.11899       -0.84463       -3.80354
C          4.98258        0.28970       -2.99163
C          5.07826        0.21658       -1.61365
C          5.59685       -0.30444        1.34878
C          5.91322        0.99477        1.22899
C          5.59882        1.92754        2.24875
S          6.84692        2.31105        3.32960
C          5.89644        3.41124        4.21912
O          6.40188        4.12527        5.23895
C          7.48652        3.60685        6.00089
C          4.61785        3.54868        3.66750
C          3.61977        4.50344        4.21071
O          2.53773        4.70903        3.65767
C          3.87468        5.24806        5.49900
C          4.45626        2.68838        2.48304
C          3.33738        2.69892        1.55089
C          2.02443        2.63287        1.84686
C          1.01084        3.02054        0.90093
S          0.73897        4.73382        0.75737
C         -0.65099        4.59697       -0.25068
C         -0.90212        3.25719       -0.48981
C          0.07773        2.34096        0.12530
C         -0.04339        0.93665       -0.02605
C          0.91210       -0.08211        0.44025
O          2.11342        0.08964        0.31705
C          0.34574       -1.39060        0.94362
C         -1.16714        0.53516       -0.79290
C         -2.11088        1.43125       -1.35862
C         -2.01992        2.82465       -1.22450
C         -1.30483        5.81680       -0.61515
C         -1.87935        6.03393       -1.80514
H         11.20201       -0.24776        3.30040
H         13.66617        0.54881        4.17448
H         15.51408        0.13486        6.34522
H         15.27979        1.50955        5.19943
H         16.85922        1.19875        5.90369
H         17.94141       -4.10625        4.42106
H         18.14578       -4.03724        2.65816
H         16.61719       -4.58335        3.38408
H         15.19317       -3.93255        2.14937
H         13.51870       -4.86720        1.03227
H         12.99539       -7.29651        0.73035
H         10.86122       -8.64713        0.33819
H          8.65352       -8.62392       -0.82139
H          6.99293       -7.35638       -2.28428
H          6.28939       -4.97814       -2.52305
H          3.19751       -3.83293       -5.38763
H          4.15235       -2.51918       -6.14124
H          3.09389       -2.20123       -4.74492
H          4.98545       -0.67810       -4.87244
H          4.73379        1.24713       -3.44708
H          4.83615        1.08619       -1.02020
H          5.18870       -0.69014        2.27976
H          6.40651        1.39211        0.34761
H          8.12719        4.44856        6.28049
H          8.12213        2.87848        5.49184
H          7.09059        3.15650        6.91496
H          3.91256        4.54636        6.33602
H          3.04982        5.94670        5.67634
H          4.78407        5.84749        5.43400
H          3.60550        2.83053        0.50315
H          1.69817        2.48981        2.87368
H          1.06137       -1.85163        1.63068
H          0.17351       -2.06418        0.10016
H         -0.58607       -1.22778        1.49084
H         -1.32696       -0.52529       -0.99166
H         -2.94095        1.01888       -1.93259
H         -2.77564        3.47063       -1.65316
H         -1.29684        6.63259        0.10667
H         -1.88978        5.30420       -2.60624
H         -2.34786        6.99173       -2.01558
