134

C         -1.29974       -0.29455       -3.26078
C         -1.05786        1.07090       -3.33455
C         -1.40429        1.90153       -2.24232
C         -1.14976        3.31215       -2.35205
N         -0.94378        4.44670       -2.46098
C         -1.99992        1.35651       -1.08471
C         -2.39349        2.18818        0.02040
N         -2.72697        2.84276        0.91570
C         -2.25342       -0.01542       -1.01111
C         -1.90472       -0.80009       -2.10079
C         -2.18840       -2.23355       -2.24618
O         -2.53542       -2.96652       -1.34725
C         -1.92240       -2.54456       -3.69134
C         -1.11622       -1.42380       -4.22261
C         -0.22758       -1.48044       -5.24985
C          0.61176       -0.39639       -5.58924
N          1.26863        0.51387       -5.84161
C         -0.02363       -2.66113       -6.01475
N          0.14235       -3.62392       -6.64474
C         -2.52717       -3.53992       -4.35877
C         -3.47517       -4.48922       -3.76667
C         -3.01241       -5.68898       -3.21397
C         -3.94704       -6.57138       -2.68935
C         -5.32994       -6.28575       -2.74220
C         -5.78887       -5.08814       -3.26110
C         -4.85293       -4.18699       -3.77521
C         -6.06652       -7.42149       -2.23651
C         -5.16423       -8.41159       -1.81141
C         -3.72200       -7.93565       -2.02743
C         -2.93253       -8.90650       -2.94929
C         -3.49699       -9.09533       -4.35790
C         -2.98989       -7.80233       -0.66318
C         -3.61715       -6.82373        0.33153
C         -5.60495       -9.63578       -1.31125
C         -6.97377       -9.93388       -1.32537
C         -7.86577       -8.91038       -1.75087
C         -7.42501       -7.65185       -2.18208
C         -7.48015      -11.27872       -0.92630
S         -9.03923      -11.34404       -0.20699
C         -9.04659      -13.04427       -0.05741
C         -7.81412      -13.56878       -0.41879
C         -6.93970      -12.56740       -1.02893
C         -5.60146      -12.98135       -1.63192
S         -5.51141      -12.57018       -3.41133
C         -5.28144      -14.49069       -1.52621
C         -5.86405      -15.13227       -0.27856
C         -7.38233      -15.00844       -0.31223
C        -10.26922      -13.62670        0.38535
C        -10.32659      -14.76016        1.09178
C        -11.56403      -15.41911        1.50360
C        -11.53036      -16.16322        2.69147
C        -12.63752      -16.91936        3.02880
C        -13.76113      -16.95177        2.18108
C        -13.82276      -16.19019        1.02737
C        -12.71032      -15.42695        0.68459
C        -14.70011      -17.91488        2.68700
C        -14.22040      -18.44868        3.90134
C        -12.82098      -17.89076        4.21026
C        -11.72374      -18.99286        4.16760
C        -11.57139      -19.74399        2.84362
C        -12.75355      -17.10133        5.54796
C        -13.05769      -17.90343        6.81081
C        -14.96566      -19.40366        4.58101
C        -16.16154      -19.86799        4.01601
C        -16.54569      -19.41373        2.73699
C        -15.84963      -18.39687        2.09553
C        -16.91559      -20.91588        4.71755
C        -18.23685      -21.14946        4.72294
C        -18.67149      -22.49464        5.21498
O        -18.05344      -23.28951        5.89090
C        -20.00639      -22.71291        4.64073
C        -20.76514      -23.86576        4.78505
C        -22.02478      -23.90109        4.17954
C        -22.46872      -22.79918        3.41746
C        -21.65889      -21.64918        3.27033
C        -20.42702      -21.58772        3.91112
C        -19.40786      -20.50833        4.10170
C        -19.63897      -19.17832        3.96286
C        -18.81475      -18.19019        4.58092
N        -18.20112      -17.36375        5.12047
C        -20.75610      -18.65965        3.25458
N        -21.65496      -18.26025        2.63457
C        -23.76759      -22.79743        2.80397
N        -24.81655      -22.77364        2.30916
C        -22.84648      -25.06246        4.37017
N        -23.50054      -26.00368        4.54325
H         -0.63427        1.53400       -4.22476
H         -2.73743       -0.46585       -0.14538
H         -2.42110       -3.67104       -5.43165
H         -1.95438       -5.93267       -3.20581
H         -6.84703       -4.85471       -3.28064
H         -5.20993       -3.25166       -4.19656
H         -2.87214       -9.89512       -2.47544
H         -1.89744       -8.55504       -3.05164
H         -4.52846       -9.45758       -4.34047
H         -2.89675       -9.83202       -4.90260
H         -3.46745       -8.16477       -4.93243
H         -1.95067       -7.49071       -0.82939
H         -2.94139       -8.78723       -0.17958
H         -3.54595       -5.79220       -0.02664
H         -3.09021       -6.87586        1.28970
H         -4.66957       -7.05134        0.52513
H         -4.87228      -10.33765       -0.93759
H         -8.94008       -9.08195       -1.77187
H         -8.14075       -6.90310       -2.50353
H         -4.80537      -12.44929       -1.10321
H         -6.67121      -13.15489       -3.74971
H         -4.19368      -14.63653       -1.53164
H         -5.67281      -15.05214       -2.38594
H         -5.46026      -14.65268        0.62208
H         -5.58496      -16.19151       -0.23445
H         -7.72987      -15.47300        0.60799
H         -7.80093      -15.57596       -1.15247
H        -11.19126      -13.10157        0.14198
H         -9.43844      -15.27427        1.42541
H        -10.63904      -16.18585        3.31131
H        -14.69352      -16.20773        0.38140
H        -12.73276      -14.87281       -0.25099
H        -11.91522      -19.73925        4.94678
H        -10.74968      -18.54268        4.40316
H        -12.47070      -20.31672        2.60123
H        -10.73594      -20.44839        2.91471
H        -11.35179      -19.07219        2.00845
H        -13.43748      -16.24344        5.51846
H        -11.74587      -16.67728        5.66585
H        -14.09919      -18.22809        6.83595
H        -12.91392      -17.28177        7.69945
H        -12.41066      -18.77967        6.90994
H        -14.61844      -19.80325        5.52782
H        -17.39759      -19.84633        2.22625
H        -16.17934      -18.03325        1.12862
H        -16.26453      -21.62341        5.23854
H        -20.38595      -24.70074        5.37162
H        -22.04165      -20.82921        2.66812
