102

C         -5.42237       -9.04808        4.60060
C         -6.57123       -9.81913        4.41080
C         -7.49115       -9.49579        3.40684
C         -7.28677       -8.38968        2.57676
C         -6.13536       -7.63011        2.74125
C         -5.19156       -7.96875        3.75498
C         -4.08057       -6.96608        3.72582
C         -2.80897       -7.13581        4.15825
C         -2.36819       -8.32146        4.81107
N         -2.00550       -9.28455        5.34753
C         -1.79886       -6.16441        3.89671
N         -1.00368       -5.34875        3.67552
C         -4.60592       -5.82752        2.92071
C         -5.64309       -6.40770        2.02795
C         -5.87845       -6.07656        0.73649
C         -5.04634       -5.13487        0.06241
N         -4.31166       -4.41424       -0.47515
C         -6.83365       -6.75441       -0.07794
N         -7.60221       -7.31468       -0.74438
C         -4.39308       -4.53374        3.24083
C         -5.10913       -3.34494        2.70275
N         -6.34415       -3.35773        2.26331
C         -6.56758       -2.05878        1.92806
C         -5.39434       -1.25752        2.18759
C         -5.68815        0.15102        1.80196
O         -4.99349        1.14088        1.85303
C         -7.08955        0.06818        1.34826
C         -7.54721       -1.28968        1.46021
N         -8.84482       -1.36731        1.06546
C         -9.12307       -0.13375        0.73826
C         -8.04191        0.86330        0.88213
C         -4.42423       -1.99769        2.71534
C         -3.10353       -1.67961        3.17428
C         -2.55444       -0.45372        3.23597
C         -1.22843       -0.29447        3.70809
N         -0.89332        0.90105        4.31139
C          0.39761        0.79624        4.76284
C          1.39422        1.47881        5.50660
C          2.47298        0.60473        5.55409
N          2.16933       -0.52057        4.81643
C          0.88166       -0.40707        4.38261
C         -0.11963       -1.12566        3.69635
C          3.68592        0.63279        6.29168
C          4.83032        0.09409        5.84193
C          5.98693        0.01703        6.76383
N          5.87682       -0.08624        8.06724
C          7.15771       -0.23216        8.48278
C          8.05749       -0.21799        7.35530
C          9.44714       -0.37888        7.86788
O         10.48898       -0.44844        7.25433
C          9.24364       -0.47584        9.33371
C          7.83586       -0.38422        9.61630
N          7.62485       -0.47374       10.95545
C          8.83209       -0.60479       11.43195
C          9.94152       -0.61848       10.45339
C          7.38850       -0.05853        6.21458
C          7.81731        0.08604        4.84994
C          8.93292       -0.46320        4.34501
C          9.33907       -0.37686        2.95137
C          9.52794       -1.45673        2.16824
C         10.26165       -1.54853        0.88470
C         10.11195       -0.73061       -0.18085
C          9.25176        0.40455       -0.12847
N          8.54826        1.32514       -0.06684
C         10.68881       -1.01997       -1.44792
N         11.14530       -1.26914       -2.48534
C         10.98386       -2.87229        0.94653
C         10.45867       -3.61959        2.04241
C         11.00004       -4.83991        2.41907
C         12.03644       -5.36435        1.64828
C         12.52627       -4.66343        0.53635
C         12.01821       -3.40431        0.19089
C          9.30803       -2.85420        2.58098
C          8.10269       -3.38193        2.89367
C          7.91470       -4.77513        3.11356
N          7.76038       -5.90621        3.30095
C          6.92249       -2.58966        2.78603
N          5.97349       -1.93976        2.63111
H         -4.75665       -9.31040        5.41614
H         -6.76024      -10.67406        5.05801
H         -8.38365      -10.10646        3.28052
H         -8.04491       -8.15218        1.83781
H         -3.71125       -4.28496        4.04800
H        -10.10509        0.20132        0.37209
H         -8.05058        1.91453        0.67613
H         -2.50653       -2.51927        3.52055
H         -3.09373        0.43570        2.93447
H         -1.47905        1.71402        4.46212
H          1.32223        2.44556        5.98714
H          2.73003       -1.34973        4.67089
H         -0.05596       -2.11836        3.27001
H          3.64602        1.08737        7.28029
H          4.93124       -0.34528        4.85749
H          9.06469       -0.70375       12.50308
H         10.99310       -0.71544       10.63319
H          7.15819        0.65549        4.19568
H          9.60369       -1.04304        4.97924
H          9.62440        0.62246        2.62568
H         10.64352       -5.39271        3.28324
H         12.46569       -6.33083        1.90746
H         13.32379       -5.10353       -0.06057
H         12.45590       -2.88554       -0.65501
