113

C          3.67237        2.57628       -8.67747
C          4.83244        2.02041       -8.26369
C          5.73308        1.42827       -9.19185
N          6.44861        0.92447       -9.95702
C          5.12331        1.87268       -6.87430
N          5.32807        1.79931       -5.73623
C          3.13813        2.65983      -10.05457
C          1.76188        2.39784       -9.98144
C          0.90842        2.48297      -11.06243
C          1.42224        3.03353      -12.23714
C          2.78690        3.45619      -12.29476
C          3.66339        3.20193      -11.21495
C          3.20506        4.19883      -13.40849
C          2.31812        4.48988      -14.44924
C          1.01443        4.00180      -14.42016
C          0.56972        3.27009      -13.32193
C          1.33966        2.39637       -8.56500
O          0.25790        2.07231       -8.12906
C          2.53569        2.93935       -7.82585
C          2.56502        3.90426       -6.88844
C          1.45417        4.67384       -6.35616
C          0.37994        5.01399       -7.11256
C         -0.42990        6.00575       -6.45356
C         -1.62872        6.53623       -6.98702
N         -2.59928        6.97474       -7.44297
C          0.14707        6.34757       -5.29357
C          1.35706        5.53095       -5.13247
C          2.13752        5.53170       -4.02535
C          2.03987        6.43187       -2.85091
C          2.95725        6.01151       -1.95644
C          3.65458        4.85744       -2.47893
C          3.19781        4.57163       -3.70908
C          4.62432        4.12464       -1.75578
N          5.41047        3.52325       -1.15117
C          1.25748        7.60940       -2.57877
C          1.31161        8.70526       -3.35018
C          0.57531        9.89323       -3.07194
S          0.05398       10.83069       -4.40530
C         -0.61964       12.06775       -3.41611
C         -0.55571       11.72431       -2.07022
C          0.19746       10.50640       -1.89359
C          0.53567        9.98628       -0.59594
N          0.81753        9.57214        0.44783
C         -1.14124       12.44111       -0.88569
F         -1.84265       13.55951       -1.18151
F         -1.99872       11.63283       -0.21371
F         -0.17205       12.81001       -0.01142
C         -1.14929       13.18740       -4.11319
C         -1.14204       14.42373       -3.59977
C         -1.70268       15.55396       -4.28488
C         -0.92523       16.61714       -4.58193
C         -1.68117       17.57420       -5.35503
C         -1.15063       18.79656       -5.81788
N         -0.69103       19.79632       -6.19838
C         -2.93005       17.11444       -5.55129
C         -3.03716       15.81231       -4.87999
C         -4.15051       15.04913       -4.80856
C         -5.43255       15.23308       -5.52316
C         -6.25290       14.24225       -5.10724
C         -5.58180       13.42848       -4.11826
C         -4.33565       13.88855       -3.93732
C         -6.17152       12.33770       -3.43869
N         -6.64449       11.44080       -2.87591
C         -5.80588       16.12418       -6.59279
C         -6.90650       16.89016       -6.56156
C         -7.26875       17.76190       -7.65717
C         -8.51094       18.16460       -7.97080
C         -8.96704       18.96094       -9.13241
C         -8.30159       19.96460       -9.74397
C         -8.86906       20.76885      -10.76962
N         -9.33431       21.42260      -11.61035
C         -6.98896       20.35553       -9.34830
N         -5.91705       20.65886       -9.02400
C        -10.39831       18.60474       -9.35052
C        -10.85335       17.89981       -8.22921
C         -9.75082       17.65358       -7.28871
O         -9.86346       17.13107       -6.20013
C        -12.16062       17.46656       -8.07603
C        -13.06785       17.72952       -9.10754
C        -12.62585       18.40305      -10.28113
C        -11.28483       18.82731      -10.39572
C        -13.54636       18.64136      -11.31268
C        -14.87780       18.23930      -11.19034
C        -15.30812       17.58893      -10.03755
C        -14.40769       17.33090       -9.00359
H         -0.14983        2.26683      -10.94421
H          4.69518        3.54287      -11.25612
H          4.21410        4.60350      -13.45699
H          2.64359        5.10686      -15.28333
H          0.33183        4.21551      -15.23911
H         -0.46214        2.92388      -13.30343
H          3.53648        4.29998       -6.59394
H          0.13640        4.68439       -8.11119
H         -0.27669        7.05167       -4.60173
H          3.17109        6.46670       -0.99829
H          3.50438        3.71862       -4.28844
H          0.64363        7.54873       -1.68238
H          1.91691        8.68816       -4.25565
H         -1.54622       13.03110       -5.11711
H         -0.67679       14.65636       -2.64617
H          0.12040       16.73152       -4.33296
H         -3.71812       17.64655       -6.05428
H         -7.25194       14.04055       -5.47035
H         -3.64284       13.50281       -3.21022
H         -5.15575       16.11773       -7.46598
H         -7.55400       16.87133       -5.68581
H         -6.42137       18.05663       -8.27170
H        -12.45645       16.93427       -7.17643
H        -10.97624       19.31910      -11.31291
H        -13.23724       19.15123      -12.22351
H        -15.58019       18.43757      -11.99627
H        -16.34639       17.28061       -9.94226
H        -14.76468       16.81697       -8.11324
