105

C          6.29368       -4.91532       -6.30377
C          5.25746       -5.47220       -7.04165
F          4.64230       -6.57035       -6.58368
C          4.85526       -4.91285       -8.24639
C          5.46427       -3.74042       -8.70266
C          6.49192       -3.13008       -7.96091
C          6.94153       -3.76181       -6.76157
C          8.03103       -3.23832       -6.04629
C          8.64355       -2.08472       -6.50207
C          8.10001       -1.39092       -7.59467
C          7.06441       -1.90705       -8.35894
C          8.72996       -0.04686       -7.69003
O          8.46472        0.82777       -8.48634
C          9.66563        0.02861       -6.50986
C          9.85217       -1.35158       -6.06015
C         11.02059       -1.95690       -5.73931
C         12.28135       -1.29920       -5.86184
N         13.32793       -0.83084       -6.02987
C         11.09639       -3.35134       -5.46203
N         11.13812       -4.49006       -5.24178
C          9.90500        1.20419       -5.90214
C         10.38007        1.29350       -4.55402
S         12.03259        1.68123       -4.24121
C         11.89468        1.47541       -2.53125
C         10.57720        1.24943       -2.19538
C          9.70082        1.19790       -3.35050
C          8.31072        1.04635       -3.25827
C          7.87618        0.94979       -1.92105
F          6.55604        0.83097       -1.70480
C          8.74406        0.97135       -0.79040
F          8.19939        0.85611        0.43184
C         10.14066        1.11507       -0.87133
C         13.06892        1.51624       -1.72493
C         13.67801        2.67118       -1.40673
C         14.90966        2.82167       -0.63063
C         16.00203        2.03460       -0.61043
C         17.20210        2.26181        0.17079
C         18.06312        1.22452        0.16996
C         17.61349        0.09100       -0.62514
S         16.18075        0.57824       -1.53906
C         18.09370       -1.17001       -0.69490
C         19.18536       -1.79025        0.03446
C         19.23961       -3.13224       -0.10086
C         18.21004       -3.68698       -0.96997
S         17.33945       -2.38504       -1.73543
C         17.91897       -4.98926       -1.18595
C         16.85951       -5.48144       -2.08101
C         16.51561       -6.75508       -2.37906
C         17.18287       -7.97388       -1.81238
C         15.35940       -7.07376       -3.31360
N         15.88971       -7.25459       -4.65123
C         15.74184       -8.35611       -5.45470
C         16.16322       -8.48072       -6.72023
C         15.94095       -9.65317       -7.53632
C         16.32270      -10.92022       -7.32381
C         15.72099      -11.98705       -8.20024
O         15.13061      -11.84847       -9.25095
C         15.93401      -13.25849       -7.48581
C         15.47534      -14.51280       -7.86032
C         15.75767      -15.59921       -7.01719
C         16.46091      -15.37775       -5.79738
C         16.77943      -16.46161       -4.97216
C         16.39560      -17.74479       -5.33455
C         15.68326      -17.97598       -6.50345
C         15.36563      -16.90712       -7.34565
F         16.72349      -18.77454       -4.54379
C         16.85999      -14.08458       -5.43088
C         16.65442      -13.03246       -6.30689
C         17.09840      -11.61434       -6.29232
C         18.23106      -11.19207       -5.67342
C         18.81198       -9.92040       -5.93144
N         19.35834       -8.93137       -6.15494
C         19.03047      -12.03837       -4.84617
N         19.68030      -12.74193       -4.18584
H          6.58214       -5.39439       -5.37188
H          4.06273       -5.38788       -8.81653
H          5.12854       -3.31050       -9.64464
H          8.37909       -3.74048       -5.14735
H          6.69766       -1.36219       -9.22488
H          9.57817        2.13123       -6.37078
H          7.61250        1.03287       -4.08349
H         10.76635        1.13907        0.01094
H         13.45836        0.55505       -1.40529
H         13.21946        3.61233       -1.70999
H         14.92502        3.73744       -0.03894
H         17.37810        3.19369        0.69299
H         19.00830        1.23815        0.69493
H         19.87791       -1.22326        0.64360
H         19.98277       -3.75077        0.38658
H         18.49094       -5.74662       -0.65526
H         16.27245       -4.70552       -2.57250
H         18.27077       -7.87653       -1.80681
H         16.94829       -8.86241       -2.41095
H         16.81898       -8.16012       -0.79731
H         14.60540       -6.27793       -3.31646
H         14.84232       -7.97968       -2.97136
H         16.29174       -6.42431       -5.08138
H         15.21808       -9.17568       -4.96666
H         16.64194       -7.63937       -7.21786
H         15.34566       -9.43391       -8.42681
H         14.92937      -14.63667       -8.79188
H         17.34846      -16.32723       -4.05589
H         15.38611      -18.98904       -6.75479
H         14.81654      -17.10698       -8.26358
H         17.33868      -13.93950       -4.46722
