103

C         -2.85413      -10.01708        1.88833
N         -3.20425       -8.90021        2.44778
C         -2.09216       -8.36643        3.05729
C         -1.61060       -7.15916        2.75754
C         -1.44946      -10.45141        2.14390
S         -0.82048       -9.53722        3.52995
N          0.28983       -8.61057        2.74065
C         -0.17783       -7.41386        2.53465
C          0.60602       -6.31059        1.92551
C          1.92668       -6.33608        2.13645
N          2.92097       -5.48809        1.69620
C          4.25251       -5.60229        1.99362
S          4.80667       -6.32751        3.46477
C          6.42875       -6.08528        3.07085
N          7.45466       -6.50429        3.98999
O          8.62619       -6.29253        3.62959
O          7.11932       -7.02581        5.05504
C          6.59916       -5.47991        1.85039
C          5.34018       -5.17304        1.24168
C          5.22978       -4.57001       -0.04954
C          5.15883       -3.24431       -0.25723
C          5.03848       -2.63487       -1.59118
C          5.59154       -1.36382       -1.82025
C          5.48253       -0.80784       -3.08991
C          4.81324       -1.49461       -4.12329
C          4.23296       -2.72749       -3.90155
C          4.34312       -3.29031       -2.63095
C          4.87377       -0.71814       -5.33526
C          5.62049        0.45524       -5.10258
C          6.02973        0.52499       -3.62315
C          7.56761        0.63073       -3.43092
C          8.39464       -0.52566       -3.99345
C          5.33420        1.74027       -2.93879
C          3.80295        1.71588       -2.93002
C          5.82664        1.37935       -6.11962
C          5.24882        1.13431       -7.37506
C          4.47426       -0.02826       -7.57723
C          4.29955       -0.96896       -6.56610
C          5.38689        2.13428       -8.44084
C          5.39767        1.80585       -9.74124
C          5.49097        2.81565      -10.79315
C          4.36848        3.43586      -11.36760
C          4.50586        4.41611      -12.41531
N          3.39678        4.99486      -12.92888
C          2.17947        4.62561      -12.44136
C          2.04882        3.69624      -11.43659
N          3.14161        3.09658      -10.90536
C          0.78326        3.31757      -10.87895
N         -0.25818        3.02366      -10.45415
C          1.05917        5.27751      -13.04104
N          0.12330        5.79714      -13.50308
C          5.77014        4.80446      -12.90937
C          6.92649        4.20690      -12.33312
C          6.78152        3.18077      -11.25410
N          7.96128        2.70758      -10.81662
S          9.14144        3.47962      -11.68210
N          8.21093        4.46242      -12.63740
C          5.97991        5.81001      -13.96695
C          6.04453        5.54867      -15.28120
C          6.33179        6.53220      -16.30106
C          6.42620        6.02048      -17.53849
C          6.20842        4.58324      -17.60007
S          5.84795        3.96590      -15.98058
C          6.25625        3.79750      -18.69521
C          6.52086        4.21079      -20.06468
C          6.45708        3.21114      -20.95853
C          6.15073        1.93459      -20.36586
S          5.97880        2.05002      -18.64229
C          6.00085        0.77932      -21.01817
H         -3.49672      -10.66581        1.27780
H         -2.15699       -6.38091        2.25425
H         -0.99261      -11.23129        1.52538
H          0.10240       -5.54466        1.35399
H          2.32063       -7.15957        2.73242
H          2.62448       -4.78073        1.02729
H          7.56927       -5.26082        1.41582
H          5.23039       -5.25861       -0.89286
H          5.20480       -2.55555        0.58294
H          6.11755       -0.83019       -1.03425
H          3.71259       -3.25604       -4.69267
H          3.87602       -4.25773       -2.46563
H          7.79182        0.70296       -2.35806
H          7.93768        1.56082       -3.88196
H          8.06682       -1.49471       -3.60610
H          9.44481       -0.40382       -3.70567
H          8.35153       -0.55541       -5.08583
H          5.65216        2.66800       -3.43376
H          5.66879        1.81998       -1.89642
H          3.38309        1.55749       -3.92754
H          3.41532        2.67123       -2.56100
H          3.42310        0.93261       -2.26655
H          6.40922        2.27768       -5.93893
H          3.97897       -0.20659       -8.52877
H          3.70263       -1.85580       -6.74558
H          5.48015        3.16899       -8.12059
H          5.33610        0.77752      -10.08543
H          6.14976        6.81885      -13.60059
H          6.47594        7.58006      -16.07341
H          6.65371        6.62295      -18.40715
H          6.73895        5.23127      -20.34667
H          6.61330        3.33226      -22.02186
H          6.09930        0.71158      -22.09497
H          5.76774       -0.13784      -20.48406
