75

C          0.99572        0.06001        0.81038
O         -0.20840        0.10134        0.69043
C          1.92333        1.14628        0.47224
C          3.16100        0.94287        1.10369
C          4.19345        1.82813        0.83081
C          3.96200        2.90147       -0.05345
C          2.70316        3.08160       -0.66401
C          1.66193        2.19403       -0.39463
Br         2.34155        4.47887       -1.89827
Br         5.43362        4.05962       -0.38778
C          3.06750       -0.30288        1.92078
C          3.83418       -0.64409        2.98344
C          4.92111        0.16001        3.42660
N          5.80903        0.82110        3.77911
C          3.56603       -1.79803        3.77830
N          3.33624       -2.74861        4.39858
C          1.84699       -0.99461        1.45498
C          1.60336       -2.31335        1.40829
C          0.50426       -2.88613        0.71641
S         -0.18701       -4.35266        1.30207
C         -1.26908       -4.31511       -0.04137
N         -1.05966       -3.28952       -0.84260
N         -0.02821       -2.48466       -0.41925
C         -2.23070       -5.34646       -0.18020
C         -3.08158       -5.35123       -1.21585
C         -4.02405       -6.39549       -1.34541
N         -4.41557       -6.73218       -2.62105
C         -5.29838       -7.76772       -2.52486
C         -6.08946       -8.63258       -3.31063
C         -6.75210       -9.43149       -2.39429
N         -6.37960       -9.08109       -1.11718
C         -5.47996       -8.06078       -1.21475
C         -4.67734       -7.20527       -0.42999
C         -7.70100      -10.46498       -2.51973
C         -7.72023      -11.24381       -3.61160
C         -8.68978      -12.31807       -3.82547
C         -9.69937      -12.64654       -2.94025
N        -10.56636      -13.65825       -3.11442
C        -10.44622      -14.33529       -4.25926
N         -9.52874      -14.11122       -5.21706
C         -8.66032      -13.10525       -4.96364
C        -11.32881      -15.47885       -4.40291
C        -11.83794      -16.00189       -5.52348
C        -12.37330      -17.39206       -5.41169
O        -12.69425      -17.99776       -4.41121
C        -12.35359      -17.92808       -6.77918
C        -11.93583      -16.94428       -7.69174
C        -11.79164      -15.65580       -6.94993
C        -11.89191      -14.41691       -7.49607
C        -12.13314      -13.24826       -6.71227
N        -12.38484      -12.28716       -6.11336
C        -11.90037      -14.19245       -8.90279
N        -11.90123      -14.01524      -10.04961
C        -11.77656      -17.30873       -9.02140
C        -12.08762      -18.62429       -9.41907
C        -12.53438      -19.57768       -8.48240
C        -12.65649      -19.23129       -7.13743
Br       -12.99099      -21.35889       -8.95508
Br       -11.88458      -19.02463      -11.26743
H          5.18432        1.70220        1.25668
H          0.68613        2.28460       -0.86479
H          2.30271       -3.02626        1.83082
H         -2.24835       -6.14195        0.55830
H         -3.04933       -4.56656       -1.97028
H         -4.11714       -6.32978       -3.50070
H         -6.18436       -8.65879       -4.38684
H         -6.67980       -9.48294       -0.23793
H         -4.59383       -7.17597        0.64714
H         -8.40726      -10.59133       -1.70574
H         -6.97834      -11.10233       -4.39534
H         -9.86016      -12.10090       -2.01580
H         -7.90828      -12.95380       -5.73480
H        -11.50266      -15.97418       -3.44859
H        -11.41781      -16.60969       -9.77000
H        -12.97435      -19.94596       -6.38300
