90

C          2.83900        3.13526       -4.90284
C          2.28498        4.18965       -5.58192
S          2.75393        4.15173       -7.24960
C          3.67130        2.73414       -7.02821
Cl         4.51512        2.05291       -8.35382
C          3.61989        2.30088       -5.73854
C          4.19204        1.18582       -5.04511
O          4.85707        0.28633       -5.51693
C          3.72700        1.40434       -3.59987
C          2.84749        2.63785       -3.54335
C          2.21296        3.18997       -2.48201
C          1.42133        4.37351       -2.60321
N          0.77858        5.32978       -2.70077
C          2.27920        2.65872       -1.16235
N          2.33791        2.23280       -0.08629
C          4.08944        0.55637       -2.61998
C          4.97135       -0.58388       -2.73218
C          4.61846       -1.83663       -2.37025
C          5.76224       -2.73263       -2.59314
C          6.83662       -1.87278       -3.10801
C          6.35826       -0.61746       -3.17026
C          8.15187       -2.21585       -3.49793
N          9.24720       -2.46467       -3.78912
C          5.77693       -4.06717       -2.36560
C          6.92218       -4.96065       -2.54350
C          6.55940       -6.23078       -2.24808
C          5.15091       -6.18728       -1.87045
C          4.68531       -4.92878       -1.91289
C          3.35000       -4.59216       -1.60603
N          2.25157       -4.32871       -1.34271
C          7.45472       -7.36400       -2.32110
N          7.45687       -8.46581       -1.44975
C          6.65030       -8.66652       -0.26311
C          7.29651       -8.10843        0.99376
C          8.48076       -9.38803       -1.77835
O          8.79160      -10.43268       -1.24377
C          9.12329       -8.76647       -2.94449
C          8.42896       -7.54059       -3.22508
C          9.06994       -6.92530       -4.40201
O          8.73194       -5.90943       -4.97249
N         10.13143       -7.81020       -4.68274
C         11.01993       -7.58446       -5.80783
C         10.49825       -8.18874       -7.10087
C         10.13362       -8.89885       -3.80578
C         11.10233       -9.96012       -3.82998
C         12.42047       -9.74924       -3.67172
C         13.46623      -10.77083       -3.77266
C         13.33671      -11.92956       -4.51018
N         14.34067      -12.79928       -4.73507
C         15.53613      -12.47591       -4.22134
N         15.78722      -11.41432       -3.44114
C         14.73324      -10.58215       -3.24191
C         16.61202      -13.39532       -4.55428
C         17.93954      -13.23045       -4.64921
C         18.71406      -14.54136       -4.75096
O         18.29450      -15.65128       -5.01571
C         20.04461      -14.14310       -4.39812
C         21.22640      -14.80190       -4.24759
S         22.48320      -13.74026       -3.80437
C         21.42778      -12.36658       -3.83076
C         20.15596      -12.74692       -4.16969
C         18.89164      -12.09769       -4.45507
C         18.73181      -10.77712       -4.70939
C         19.75363       -9.82964       -4.40730
N         20.58606       -9.06497       -4.14293
C         17.61467      -10.23549       -5.40591
N         16.76967       -9.73944       -6.02911
Cl        21.55808      -16.46895       -4.45764
H          1.64312        4.99426       -5.25058
H          3.72649        0.66868       -1.60400
H          3.64834       -2.09932       -1.98529
H          6.89958        0.24852       -3.52159
H          7.90860       -4.66717       -2.86320
H          4.55455       -7.05137       -1.62492
H          6.49459       -9.74399       -0.13519
H          5.66009       -8.23516       -0.38677
H          8.28321       -8.55000        1.16428
H          6.66976       -8.32706        1.86484
H          7.41746       -7.02264        0.92701
H         12.01756       -7.97216       -5.59168
H         11.12826       -6.50180       -5.94270
H         10.37374       -9.27224       -7.01005
H         11.20237       -7.99371       -7.91665
H          9.53036       -7.75871       -7.37754
H         10.69354      -10.96139       -3.95354
H         12.78063       -8.73493       -3.50338
H         12.40366      -12.20001       -4.99536
H         14.96152       -9.70897       -2.63427
H         16.20361      -14.39439       -4.72287
H         21.84441      -11.39310       -3.61202
