82

C         -0.82638       -2.24436       -2.68260
S          0.77208       -1.70947       -2.49008
C          1.20976       -3.07640       -1.52537
C          0.11305       -3.91839       -1.31537
C         -1.05323       -3.42440       -2.02054
C         -2.33801       -4.06818       -2.04891
N         -3.37232       -4.59076       -2.07286
C          0.01528       -5.17851       -0.50506
F          1.11201       -5.49444        0.21834
F         -1.00253       -5.09071        0.39212
F         -0.25888       -6.24492       -1.29914
C          2.59053       -3.17845       -1.09137
S          3.42929       -4.66343       -1.10671
C          4.83919       -4.00058       -0.36775
C          4.75083       -2.61937       -0.34598
C          3.45510       -2.15218       -0.74275
C          5.81919       -1.75564        0.07050
N          6.68481       -1.05223        0.39889
C          5.90818       -4.85785        0.03421
C          5.67212       -6.04055        0.62361
C          6.70472       -6.94573        1.02216
N          6.83569       -7.43490        2.32099
C          5.97898       -7.11593        3.44536
C          4.84345       -8.11518        3.59811
C          7.91662       -8.33211        2.43074
O          8.32218       -8.95185        3.39240
C          8.44855       -8.35843        1.05793
C          7.65192       -7.48097        0.24844
C          8.17834       -7.52316       -1.12781
O          7.74731       -6.93675       -2.09861
N          9.27484       -8.39999       -1.00992
C         10.09157       -8.78376       -2.14655
C          9.53384       -9.99274       -2.88153
C          9.39409       -8.89261        0.28850
C         10.41733       -9.80427        0.68496
C         10.17316      -10.97852        1.28337
C         11.18951      -11.91829        1.68273
C         12.51580      -11.75520        1.50013
C         13.21643      -12.92350        2.02505
C         12.16413      -13.80428        2.55266
C         10.98348      -13.19884        2.34193
C         12.28660      -15.05105        3.20651
N         12.37878      -16.06562        3.76162
C         14.55465      -13.09487        1.98426
C         15.25934      -14.27548        2.47266
C         16.57529      -14.13612        2.22117
C         16.77274      -12.83055        1.59855
C         15.59685      -12.20572        1.45040
C         15.46409      -10.91216        0.88187
N         15.35769       -9.85736        0.41241
C         17.53172      -15.13894        2.56398
S         19.12807      -14.65946        3.01869
C         19.63027      -16.26217        3.28665
C         18.63464      -17.18466        3.03265
C         17.42986      -16.52734        2.60117
C         16.24512      -17.25238        2.22407
N         15.29429      -17.83696        1.91331
C         18.77594      -18.66366        3.17257
F         20.01857      -19.02436        3.57839
F         17.90161      -19.16068        4.08007
F         18.54344      -19.29622        1.99718
H         -1.52530       -1.66545       -3.27425
H          3.17893       -1.10437       -0.75508
H          6.92952       -4.51215       -0.11773
H          4.66007       -6.38052        0.83492
H          5.58511       -6.10035        3.33304
H          6.58851       -7.12885        4.35623
H          4.23003       -8.16242        2.69264
H          4.19779       -7.83064        4.43467
H          5.22940       -9.12143        3.79198
H         11.11745       -8.97874       -1.81704
H         10.13234       -7.93613       -2.83969
H          9.45077      -10.86069       -2.21951
H         10.18869      -10.26285       -3.71638
H          8.53806       -9.78218       -3.28485
H         11.42842       -9.47543        0.46099
H          9.14666      -11.27813        1.49423
H         12.96874      -10.90194        1.03357
H         10.01043      -13.57687        2.62382
H         14.79980      -15.11947        2.95726
H         17.74010      -12.43972        1.30954
H         20.64273      -16.46025        3.61692
