85

C          2.04423       -3.58727       -4.42698
C          3.00066       -2.79802       -3.76713
N          4.18950       -2.43287       -4.56717
O          4.20103       -2.76934       -5.76092
O          5.11596       -1.82348       -4.02613
C          2.78816       -2.41844       -2.42495
C          3.72192       -1.59568       -1.56819
O          3.03007       -0.44796       -1.08778
C          1.59215       -2.87365       -1.79026
C          0.62985       -3.66928       -2.44099
C          0.88814       -4.01013       -3.77457
C         -0.59809       -4.13829       -1.74850
C         -1.05843       -3.89730       -0.44440
C         -2.28353       -4.56088       -0.18582
C         -2.69545       -5.26946       -1.28336
S         -1.71714       -5.17467       -2.60499
C         -3.89236       -5.93396       -0.98390
C         -4.26279       -5.65651        0.30283
C         -3.26538       -4.75484        0.89082
C         -3.24813       -4.22255        2.12783
C         -4.27375       -4.49706        3.07783
N         -5.09784       -4.71465        3.85580
C         -2.20192       -3.35915        2.54553
N         -1.33856       -2.65586        2.87975
C         -5.46544       -6.33205        0.63296
C         -5.97150       -7.10746       -0.43338
S         -4.88864       -6.94601       -1.80356
C         -7.20434       -7.97270       -0.54339
C         -7.60768       -8.71203       -1.69676
C         -8.80887       -9.51447       -1.76299
N         -9.11322      -10.17435       -2.90846
C         -8.28180      -10.08241       -3.96499
C         -7.14891       -9.33009       -3.90964
N         -6.82690       -8.65992       -2.79485
C         -9.69731       -9.63934       -0.67352
C         -9.32805       -8.93880        0.51603
C         -8.07669       -8.09437        0.57816
N         -7.92815       -7.51337        1.78255
S         -9.19476       -7.95164        2.73371
N         -9.98816       -8.93871        1.68871
C        -10.95189      -10.44741       -0.71680
C        -11.24748      -11.62944       -1.41989
C        -12.57559      -12.07095       -1.18946
C        -13.23588      -11.21684       -0.34206
S        -12.37225       -9.89598        0.14399
C        -14.54730      -11.68308       -0.13676
C        -14.73813      -12.83371       -0.86259
C        -13.49213      -13.15386       -1.57427
C        -13.24916      -14.19950       -2.38770
C        -14.24479      -15.17848       -2.65912
N        -15.05945      -15.97634       -2.87339
C        -11.98343      -14.38463       -3.01049
N        -10.95389      -14.54290       -3.51949
C        -16.05751      -13.32618       -0.69893
C        -16.81297      -12.50559        0.14995
S        -15.85080      -11.17726        0.74713
C        -18.22156      -12.62930        0.59038
C        -18.98670      -11.49108        0.90765
C        -20.30682      -11.60067        1.34529
C        -20.88324      -12.86732        1.45943
C        -20.16930      -14.03649        1.15293
C        -18.83570      -13.89194        0.70812
C        -20.76760      -15.41341        1.25381
O        -21.32860      -15.76511        0.00128
N        -22.25968      -12.93048        1.91941
O        -22.50081      -12.45201        3.03523
O        -23.08549      -13.46105        1.16384
H          2.17614       -3.89975       -5.46245
H          4.63859       -1.24679       -2.03227
H          4.03064       -2.19503       -0.70409
H          3.14339        0.24909       -1.75734
H          1.43268       -2.58322       -0.75000
H          0.20102       -4.62226       -4.35439
H         -0.51684       -3.28097        0.26162
H         -5.94547       -6.26386        1.59942
H         -8.55477      -10.63450       -4.85492
H         -6.46012       -9.23194       -4.74156
H        -10.52299      -12.11934       -2.06048
H        -16.47094      -14.20966       -1.17074
H        -18.56693      -10.49106        0.81478
H        -20.86916      -10.70116        1.58759
H        -18.27152      -14.79205        0.46390
H        -21.52473      -15.49752        2.04053
H        -19.98962      -16.14512        1.49744
H        -22.23973      -15.41660       -0.01404
