71

C         -3.26262       -2.72603        0.18470
N         -2.63963       -3.88678        0.18049
C         -1.30159       -3.64135        0.10692
C         -0.89380       -2.33840        0.05313
S         -2.28417       -1.29920        0.10642
N          0.44665       -2.09833       -0.02959
C          1.07852       -3.25889       -0.00473
S          0.07583       -4.68103        0.05944
C          2.52294       -3.34386       -0.05517
C          3.40489       -2.43074       -0.64444
C          4.74874       -2.85348       -0.50338
C          4.82656       -4.03368        0.19877
S          3.37626       -4.66293        0.69063
C          6.17583       -4.41648        0.31517
C          6.96677       -3.48397       -0.31278
C          6.10726       -2.43403       -0.87404
C          6.47740       -1.34558       -1.57691
C          7.84152       -1.07384       -1.87377
N          8.95307       -0.84012       -2.11077
C          5.52263       -0.40966       -2.05808
N          4.74100        0.35510       -2.44788
C          8.33686       -3.83134       -0.22325
C          8.51833       -5.02866        0.47905
S          6.98706       -5.68652        0.99906
C          9.76276       -5.71695        0.77709
C         10.94588       -5.73961        0.06486
C         11.97476       -6.54695        0.69755
N         13.22409       -6.71754        0.17658
C         13.38169       -6.04693       -1.00700
C         14.71519       -6.18831       -1.64144
O         15.62036       -6.84511       -1.14315
C         14.95015       -5.50034       -2.92547
C         14.00627       -4.75609       -3.50537
C         12.67293       -4.58130       -2.89978
O         11.84574       -3.88217       -3.47055
C         12.39164       -5.27170       -1.61750
N         11.12968       -5.08198       -1.11628
C         11.56336       -7.10648        1.89020
S          9.92829       -6.66986        2.20252
C         12.30155       -7.95230        2.81009
C         13.32887       -8.85622        2.51688
C         13.80705       -9.49473        3.68525
C         13.13775       -9.05196        4.79984
S         11.97388       -7.90834        4.52282
C         13.64735       -9.70825        5.93520
C         14.64709      -10.57054        5.55164
C         14.80508      -10.49073        4.09306
C         15.66416      -11.16952        3.31007
C         16.57817      -12.11669        3.84901
N         17.32108      -12.89244        4.28768
C         15.69274      -10.98618        1.89850
N         15.70701      -10.84892        0.74860
C         15.19202      -11.24705        6.67010
C         14.56744      -10.85012        7.86049
S         13.33019       -9.66350        7.55653
C         14.85835      -11.31942        9.20280
N         15.79134      -12.22710        9.43766
C         15.83257      -12.46676       10.78045
C         14.96513      -11.77214       11.57431
S         14.00320      -10.72467       10.60128
N         14.99982      -12.00592       12.91552
C         15.92856      -12.91181       13.14172
S         16.79556      -13.51954       11.77085
H         -4.34263       -2.65554        0.23494
H          3.05491       -1.53685       -1.14938
H          9.16539       -3.26451       -0.63343
H         15.93040       -5.63035       -3.36915
H         14.17802       -4.24661       -4.44762
H         13.68916       -9.02103        1.50775
H         15.99226      -11.97943        6.65636
H         16.14768      -13.26790       14.14114
