113

C         -9.67788        0.74977        5.75605
C        -11.05937        0.94055        5.77494
F        -11.54822        2.16160        6.03055
C        -11.92468       -0.11721        5.53551
F        -13.25043        0.07585        5.53970
C        -11.42524       -1.39053        5.30403
C        -10.03977       -1.60568        5.30979
C         -9.13812       -0.52171        5.50769
C         -7.73322       -0.74339        5.46710
C         -7.21925       -2.02264        5.26836
C         -8.15233       -3.05218        5.18856
C         -9.53086       -2.88720        5.16473
C         -7.50203       -4.34704        5.27958
O         -8.15211       -5.33386        5.55280
C         -6.01671       -4.12189        5.14879
C         -5.83827       -2.62366        5.17644
C         -4.68426       -1.90838        5.12029
C         -3.38771       -2.49998        5.02348
N         -2.33046       -2.95706        4.93980
C         -4.64967       -0.48546        5.15341
N         -4.61786        0.67704        5.19680
C         -5.10497       -5.10693        4.98628
C         -5.37926       -6.51157        4.90741
C         -6.30370       -7.34405        5.54445
C         -6.40984       -8.57552        4.87839
C         -5.63429       -8.61871        3.74261
S         -4.41427       -7.46882        3.79193
C         -6.17612       -9.38858        2.66641
C         -7.35424      -10.05255        2.93422
Si        -7.69048       -9.93660        4.77494
C         -6.87558      -11.50242        5.48522
C         -9.39396       -9.77921        5.38831
C         -8.05733      -10.46806        1.79577
C         -7.35287      -10.12139        0.64467
S         -5.83318       -9.35503        1.03038
C         -7.74737      -10.32414       -0.73289
C         -8.55692      -11.30292       -1.27279
C         -8.63845      -11.22314       -2.71685
N         -9.32932      -12.11927       -3.47613
C         -9.93699      -13.07960       -2.72522
C        -10.71158      -14.08268       -3.49489
O        -10.80578      -14.06129       -4.71553
C        -11.39718      -15.14906       -2.74238
C        -11.32038      -15.23032       -1.41413
C        -10.54785      -14.25797       -0.61576
O        -10.49954      -14.38986        0.60109
C         -9.86087      -13.15670       -1.33323
N         -9.17145      -12.27761       -0.53894
C         -7.90486      -10.17909       -3.24236
S         -7.21387       -9.25286       -1.97401
C         -7.65343       -9.82093       -4.62156
C         -6.51451       -9.19333       -5.12727
C         -6.59855       -9.10639       -6.51831
C         -7.74883       -9.62454       -7.06318
S         -8.79507      -10.18702       -5.88357
C         -7.79142       -9.67197       -8.49104
C         -6.65994       -9.23312       -9.14355
Si        -5.44914       -8.58833       -7.88556
C         -5.24743       -6.74133       -7.97025
C         -3.79399       -9.38934       -7.81833
C         -6.68828       -9.42442      -10.52844
C         -7.89245      -10.00981      -10.92174
S         -8.97318      -10.18524       -9.55899
C         -8.30050      -10.31590      -12.25300
C         -9.11084      -11.31177      -12.63754
C         -9.74144      -11.16459      -13.98876
O         -9.34317      -10.52143      -14.93731
C        -11.01951      -11.88916      -13.89707
C        -12.04678      -11.84005      -14.82446
C        -13.24735      -12.48349      -14.50902
C        -13.38607      -13.15348      -13.25460
C        -14.60762      -13.77067      -12.94541
C        -15.66216      -13.73257      -13.85336
C        -15.52125      -13.08534      -15.07257
C        -14.32472      -12.46030      -15.40600
F        -16.54086      -13.05338      -15.94134
F        -16.82012      -14.32821      -13.53741
C        -12.31080      -13.18479      -12.34114
C        -11.11324      -12.56586      -12.67127
C         -9.81033      -12.41338      -11.96560
C         -9.27900      -13.29428      -11.08773
C         -7.90398      -13.25615      -10.71348
N         -6.77506      -13.27080      -10.43647
C        -10.01233      -14.40774      -10.57987
N        -10.62045      -15.30759      -10.18865
H         -9.03667        1.60574        5.94929
H        -12.12561       -2.20458        5.13321
H         -7.09028        0.11433        5.63116
H        -10.17844       -3.75815        5.07733
H         -4.06444       -4.86969        4.79643
H         -6.98375       -7.00055        6.31305
H         -5.87289      -11.62800        5.06255
H         -7.46771      -12.38555        5.23049
H         -6.78590      -11.43080        6.57193
H         -9.91657       -8.91387        4.97009
H         -9.42574       -9.68296        6.47891
H         -9.98852      -10.66493        5.13561
H         -9.03501      -10.93743        1.78791
H        -11.96209      -15.86407       -3.33152
H        -11.82003      -16.01837       -0.86080
H         -5.66874       -8.88253       -4.52455
H         -4.69721       -6.44576       -8.86847
H         -4.69911       -6.36733       -7.10008
H         -6.21991       -6.23887       -7.99218
H         -3.88377      -10.47016       -7.67000
H         -3.20088       -8.99388       -6.98736
H         -3.22782       -9.22492       -8.73943
H         -5.89080       -9.18171      -11.22130
H         -7.96673       -9.60362      -13.00827
H        -11.91421      -11.28804      -15.75117
H        -14.75692      -14.28717      -12.00056
H        -14.25088      -11.95772      -16.36695
H        -12.44889      -13.67612      -11.38152
