100

C         -2.07714       -2.93076        9.76973
C         -1.89922       -3.86840       10.78450
F         -1.85809       -3.45169       12.05763
C         -1.77012       -5.21851       10.49098
F         -1.62342       -6.11498       11.47556
C         -1.79014       -5.65622        9.17278
C         -1.94481       -4.72925        8.13329
C         -2.12207       -3.33972        8.42983
C         -2.34212       -2.40570        7.38882
C         -2.35743       -2.83970        6.07234
C         -2.10787       -4.19591        5.82684
C         -1.92475       -5.15363        6.80848
C         -2.11087       -4.44498        4.38601
O         -1.48858       -5.32234        3.82881
C         -2.87460       -3.29349        3.80113
C         -2.64514       -2.18593        4.75551
C         -2.53370       -0.87061        4.44487
C         -2.71775       -0.39477        3.11148
N         -2.88782       -0.02033        2.02793
C         -2.15216        0.09403        5.40558
N         -1.83428        0.87553        6.20429
C         -3.77226       -3.36867        2.79842
C         -4.14157       -4.57609        2.11846
C         -4.59757       -4.74239        0.80125
C         -4.82907       -6.10690        0.50326
C         -4.59434       -6.90334        1.59667
S         -4.24156       -6.09576        2.98322
C         -4.81249       -8.24877        1.26181
C         -5.22021       -8.31171       -0.04485
C         -5.24840       -6.95747       -0.61080
C         -5.57623       -6.58711       -1.86196
C         -5.96543       -7.54519       -2.84732
N         -6.28037       -8.32661       -3.63069
C         -5.54840       -5.22911       -2.28046
N         -5.52736       -4.11913       -2.62536
C         -5.48015       -9.64669       -0.42628
C         -5.27033      -10.54461        0.63355
S         -4.65747       -9.70606        2.03210
C         -5.42871      -11.99828        0.63564
C         -5.76254      -12.89326        1.66971
C         -6.14076      -12.47579        3.02625
O         -5.72035      -12.99755        4.04815
O         -7.04553      -11.46272        3.08726
C         -5.58448      -14.27747        1.23831
C         -5.28465      -14.35420       -0.10681
S         -5.13485      -12.83568       -0.84138
C         -5.75298      -15.56812        2.02591
C         -5.12068      -16.76864        1.68329
C         -5.59258      -17.83617        2.47569
C         -6.48757      -17.39880        3.42668
S         -6.79491      -15.76887        3.39142
C         -6.97261      -18.51142        4.14494
C         -6.40350      -19.65038        3.62490
C         -5.44322      -19.28627        2.58472
C         -4.59021      -20.09567        1.92611
C         -4.51691      -21.48496        2.22395
N         -4.48463      -22.61026        2.51008
C         -3.69710      -19.59423        0.94028
N         -2.97907      -19.17503        0.13157
C         -6.97583      -20.80906        4.17997
C         -7.85859      -20.49944        5.21990
S         -8.06460      -18.77281        5.36803
C         -8.62448      -21.35905        6.06155
C         -8.24327      -22.59532        6.41399
C         -9.31638      -23.55423        6.84066
O        -10.40599      -23.30113        7.30771
C         -8.81111      -24.88652        6.45305
C         -9.53143      -26.06921        6.44802
C         -8.92247      -27.20753        5.90405
C         -7.60941      -27.11409        5.34697
C         -7.02625      -28.25079        4.76967
C         -7.71308      -29.46008        4.76134
C         -8.98089      -29.55492        5.31740
C         -9.59200      -28.43944        5.88203
F         -9.63164      -30.72606        5.31380
F         -7.13510      -30.53671        4.21187
C         -6.90886      -25.89386        5.37779
C         -7.49823      -24.78555        5.96620
C         -7.03298      -23.39237        6.18332
C         -5.75024      -23.00867        6.39617
C         -5.40680      -21.70633        6.87026
N         -5.10252      -20.65574        7.25533
C         -4.64996      -23.90080        6.25063
N         -3.76111      -24.63523        6.12442
H         -2.17310       -1.88469       10.04383
H         -1.68318       -6.71914        8.97162
H         -2.51314       -1.36628        7.64596
H         -1.78737       -6.19503        6.53300
H         -4.34763       -2.48992        2.51448
H         -4.71752       -3.91669        0.10827
H         -5.80771       -9.94774       -1.41297
H         -7.41830      -11.23724        2.21700
H         -5.17500      -15.24113       -0.71812
H         -4.38593      -16.84999        0.89153
H         -6.77521      -21.82373        3.86191
H         -9.62556      -21.01812        6.33191
H        -10.54633      -26.08941        6.83713
H         -6.03415      -28.21509        4.32613
H        -10.58827      -28.54998        6.30198
H         -5.92256      -25.83709        4.92384
