126

C         -0.14284        8.84456       -3.51722
C         -0.52710       10.00857       -4.18138
C         -1.68813       10.69454       -3.80241
C         -2.50859       10.21539       -2.77309
C         -2.13432        9.06023       -2.10265
C         -0.92579        8.39675       -2.46010
C         -0.75737        7.22322       -1.55710
C          0.41966        6.75420       -1.08655
C          1.67758        7.25417       -1.53013
N          2.70440        7.65988       -1.88750
C          0.47361        5.84797        0.00732
N          0.52791        5.12610        0.91217
C         -2.11292        6.94880       -1.02177
C         -2.79895        8.26575       -1.01251
C         -3.63908        8.72472       -0.05539
C         -3.93162        7.94094        1.10505
N         -4.11561        7.29025        2.04747
C         -4.15542       10.04813       -0.05715
N         -4.55738       11.13532       -0.05119
C         -2.64009        5.71311       -0.90996
C         -4.07424        5.38696       -0.66801
N         -5.09969        6.11340       -1.04983
C         -6.17328        5.39550       -0.61073
C         -5.73531        4.18919        0.03636
C         -6.90829        3.42204        0.51228
O         -6.94526        2.36296        1.09564
C         -8.03060        4.28445        0.08141
C         -7.50462        5.44445       -0.59642
N         -8.52776        6.23661       -1.00930
C         -9.58276        5.59124       -0.58920
C         -9.35470        4.32176        0.13394
C         -4.41508        4.09633        0.01792
C         -3.57010        3.04002        0.46350
C         -2.59934        3.20074        1.36693
C         -1.64166        2.13660        1.65772
C         -0.53448        2.03121        0.79300
C          0.54134        1.17757        1.07222
C          0.55911        0.44366        2.25211
C         -0.52605        0.56236        3.10915
C         -1.65401        1.32892        2.78602
N         -2.63265        1.10641        3.77297
C         -4.01423        1.49283        3.68846
C         -2.14534        0.29795        4.80111
O         -2.75540       -0.13302        5.76867
C         -0.67251        0.03130        4.51351
C          0.15582        0.75930        5.59291
C          0.60131        2.16746        5.13837
O         -0.12857        3.13738        5.00589
N          1.97132        2.09571        4.85817
C          2.71256        3.13991        4.20297
C          2.50261        0.86296        5.25049
C          3.79952        0.39668        5.17329
C          4.08095       -0.89318        5.66693
C          3.05150       -1.64498        6.27334
C          1.74170       -1.16857        6.32363
C          1.48391        0.07212        5.77423
C          5.44788       -1.41485        5.50585
C          5.88101       -2.65348        5.79686
C          7.29701       -2.95578        5.50196
N          8.22076       -2.02944        5.42809
C          9.34185       -2.72366        5.14425
C          9.05290       -4.13569        5.04853
C         10.33160       -4.84366        4.76043
O         10.53014       -6.03044        4.61678
C         11.31719       -3.73059        4.69895
C         10.63142       -2.49132        4.94535
N         11.50361       -1.45141        4.91542
C         12.64174       -2.04095        4.66495
C         12.61123       -3.51094        4.50225
C          7.75867       -4.37338        5.26206
C          7.00433       -5.59843        5.33627
C          7.33211       -6.74448        4.71329
C          6.58104       -7.98681        4.82576
C          7.07958       -9.16548        5.25229
C          6.47538      -10.52165        5.09161
C          5.18336      -10.86248        5.29784
C          4.20278       -9.89380        5.64345
N          3.41042       -9.08607        5.92037
C          4.73507      -12.21332        5.29983
N          4.36908      -13.31577        5.31444
C          7.63893      -11.45682        4.88282
C          8.83546      -10.74974        5.18215
C         10.08622      -11.31545        4.96885
C         10.15040      -12.63937        4.53685
C          8.97753      -13.36780        4.30078
C          7.71684      -12.77422        4.44811
C          8.45211       -9.42323        5.73409
C          9.01444       -8.86745        6.83438
C         10.17778       -9.41607        7.44671
N         11.10302       -9.89329        7.96037
C          8.32323       -7.87741        7.59373
N          7.72754       -7.11613        8.23744
H          0.74650        8.31865       -3.85066
H          0.07855       10.38486       -5.00436
H         -1.96441       11.60590       -4.33039
H         -3.41939       10.75759       -2.54313
H         -2.01830        4.83809       -1.08093
H        -10.61739        5.93279       -0.74567
H        -10.06934        3.64909        0.56439
H         -3.75142        2.06115        0.02665
H         -2.40101        4.15355        1.86036
H         -0.47601        2.66006       -0.09243
H          1.38759        1.13983        0.39106
H          1.41810       -0.16929        2.50536
H         -4.12272        2.52950        4.01360
H         -4.61611        0.85595        4.34636
H         -4.38747        1.35740        2.67106
H         -0.53144       -1.05627        4.51073
H         -0.34554        0.84173        6.56357
H          2.08773        4.02750        4.06701
H          3.02503        2.78436        3.21580
H          3.59058        3.40586        4.79700
H          4.57974        1.01051        4.73349
H          3.24935       -2.62204        6.70466
H          0.95074       -1.76506        6.76880
H          6.14992       -0.70237        5.06950
H          5.26095       -3.42771        6.22181
H         13.60030       -1.50933        4.57501
H         13.42754       -4.17395        4.29699
H          6.13257       -5.58534        5.98842
H          8.20236       -6.79415        4.06004
H          5.57949       -7.92197        4.40292
H         11.00647      -10.76311        5.13575
H         11.11918      -13.11404        4.39083
H          9.05011      -14.40828        3.98707
H          6.84370      -13.37293        4.21297
