120

C          0.69642       12.33649      -11.35598
C          1.57600       12.91574      -10.50870
C          1.94829       14.28332      -10.62052
N          2.21386       15.41075      -10.70271
C          2.23562       12.15075       -9.50277
N          2.78483       11.50368       -8.70914
C          0.25794       12.87979      -12.64955
C          0.16568       11.79866      -13.54259
C         -0.08665       11.97418      -14.88337
C         -0.34029       13.27377      -15.33577
C         -0.40092       14.35741      -14.40626
C         -0.08734       14.15231      -13.05522
C         -0.76886       15.63028      -14.85718
C         -1.01179       15.85647      -16.21107
C         -0.88389       14.81630      -17.12750
C         -0.56231       13.52974      -16.69188
C          0.23024       10.52005      -12.78742
O          0.15277        9.39383      -13.23513
C          0.26334       10.94413      -11.35306
C         -0.41909       10.25362      -10.42075
C         -0.91169       10.77619       -9.16869
C         -1.19198       10.08062       -8.06210
C         -1.64217       10.87471       -6.97867
C         -1.80579       12.29304       -7.25941
O         -2.15116       13.17399       -6.50066
S         -1.38776       12.48522       -8.96143
C         -1.77789       10.05086       -5.96116
O         -1.48940        8.70101       -6.25428
C         -1.13184        8.69334       -7.59355
O         -0.85302        7.71476       -8.26212
C         -2.11518       10.41481       -4.62314
C         -2.69869        9.57346       -3.76616
C         -3.00206        9.84082       -2.37006
C         -2.75333       11.05287       -1.79965
C         -2.76086       11.16242       -0.35893
C         -2.32918       12.16452        0.45129
C         -2.05097       13.62651        0.13734
C         -2.49498       14.61584        1.25803
N         -3.91440       14.53290        1.60964
C         -0.57649       13.88717       -0.25490
N         -0.31335       15.28338       -0.63040
C         -2.13789       11.48324        1.73162
C         -1.31680       11.75815        2.75215
C         -1.14372       10.81143        3.93623
C         -1.97946        9.53399        3.84124
C         -2.78530        9.25479        2.80622
C         -2.76253       10.16872        1.70561
C         -3.09611        9.96295        0.43130
C         -3.59827        8.77917       -0.20492
C         -3.53209        8.72953       -1.54444
C         -1.43943       11.59123        5.18521
C         -2.09209       11.15699        6.27043
C         -2.46954       12.00967        7.35040
C         -2.94652       13.25496        7.28842
C         -3.31049       13.80741        8.54392
C         -3.12962       12.85979        9.66207
O         -3.43692       12.98299       10.82955
S         -2.44480       11.37735        8.98231
C         -3.72205       15.04060        8.27609
O         -3.69655       15.38036        6.90409
C         -3.22508       14.26165        6.25083
O         -3.06183       14.17380        5.05063
C         -4.19301       16.09226        9.12361
C         -4.17013       16.03592       10.45621
C         -4.61023       17.09577       11.31760
C         -4.17493       17.26163       12.57459
C         -4.64976       18.19851       13.60743
C         -5.25307       19.39540       13.40113
C         -5.61162       20.26496       14.46147
N         -5.91435       20.97518       15.32720
C         -5.52814       19.91488       12.09869
N         -5.75313       20.33714       11.04245
C         -4.18325       17.64626       14.91202
C         -3.27061       16.61269       14.66670
C         -3.14292       16.37804       13.22552
O         -2.32648       15.63877       12.71311
C         -2.61352       15.90063       15.65611
C         -2.89217       16.22489       16.98679
C         -3.83886       17.24698       17.27582
C         -4.48388       17.94385       16.23237
C         -4.11995       17.55193       18.61432
C         -3.48095       16.87165       19.65137
C         -2.55182       15.87509       19.36626
C         -2.25890       15.55079       18.04103
H         -0.11387       11.11116      -15.55235
H         -0.13230       14.97969      -12.35092
H         -0.86742       16.45950      -14.15962
H         -1.28983       16.85080      -16.55049
H         -1.04494       15.00408      -18.18596
H         -0.48035       12.73091      -17.42580
H         -0.73046        9.22986      -10.65666
H         -1.86413       11.43249       -4.33617
H         -2.93113        8.56174       -4.09948
H         -2.35320       11.89921       -2.34142
H         -2.66148       13.88262       -0.74267
H         -2.30837       15.64673        0.93522
H         -1.89802       14.47335        2.16444
H         -4.48959       14.57513        0.77387
H         -4.15234       15.34188        2.18354
H         -0.29796       13.25247       -1.10349
H          0.08544       13.63129        0.57803
H         -0.77589       15.50592       -1.51180
H          0.68472       15.41802       -0.78683
H         -0.70233       12.65092        2.73818
H         -0.08868       10.51349        3.96354
H         -1.91249        8.81261        4.64902
H         -3.38073        8.35152        2.76128
H         -3.97064        7.94954        0.38212
H         -3.85521        7.82755       -2.05674
H         -1.12185       12.63227        5.14125
H         -2.39050       10.11692        6.36905
H         -4.52863       16.99881        8.62158
H         -3.80586       15.15336       10.96256
H         -5.38553       17.71591       10.88223
H         -1.91687       15.11109       15.39025
H         -5.21622       18.69888       16.49510
H         -4.83993       18.32890       18.86388
H         -3.70965       17.12256       20.68394
H         -2.05433       15.34838       20.17669
H         -1.53121       14.76707       17.84074
