65

C          1.98109       -0.19564       -3.86194
S          2.90813       -1.48779       -3.22685
C          1.47808       -2.02030       -2.43078
N          0.43323       -1.24297       -2.64347
N          0.72060       -0.18915       -3.48921
C          1.40648       -3.16763       -1.56364
S          2.43026       -4.52690       -1.71672
C          1.68803       -5.36906       -0.40077
C          0.68930       -4.58261        0.15851
C          0.51599       -3.33942       -0.52284
C         -0.08042       -4.95167        1.31123
N         -0.69158       -5.27645        2.24318
C          2.20408       -6.66067       -0.07468
C          1.45928       -7.62016        0.49817
C          1.97369       -8.90788        0.86845
N          1.90578       -9.41783        2.16855
C          1.37444       -8.73648        3.33726
C          0.22562       -9.49783        3.98497
C          2.51565      -10.68860        2.25628
O          2.68952      -11.41654        3.21162
C          2.91034      -10.95349        0.86475
C          2.55689       -9.80827        0.07248
C          2.96415      -10.07728       -1.31828
O          2.83325       -9.34520       -2.27707
N          3.51204      -11.37380       -1.23354
C          3.97409      -12.10287       -2.39850
C          5.42228      -11.79981       -2.74029
C          3.47715      -11.86202        0.07222
C          4.00375      -13.14294        0.43535
C          3.28459      -14.11249        1.02085
C          3.89048      -15.36449        1.32760
O          5.21741      -15.63854        1.07313
C          5.54430      -16.90317        1.50058
C          4.37594      -17.47178        1.99183
C          3.34624      -16.50630        1.89352
C          1.98802      -16.67809        2.29307
N          0.88608      -16.84107        2.61447
C          4.23572      -18.80127        2.49397
N          4.14497      -19.87409        2.91639
C          6.87415      -17.40110        1.37339
C          7.40972      -18.22810        2.28539
C          8.73729      -18.71421        2.14650
S          9.60740      -19.22562        3.55572
C         10.92162      -19.59174        2.52611
N         10.70158      -19.36151        1.25196
N          9.44066      -18.84160        1.03552
H          2.39881        0.55713       -4.51563
H         -0.21913       -2.58899       -0.24800
H          3.24628       -6.86618       -0.32019
H          0.40736       -7.47697        0.72657
H          1.03447       -7.73106        3.07370
H          2.19110       -8.63019        4.05995
H         -0.58627       -9.66887        3.27096
H         -0.17282       -8.93432        4.83465
H          0.55186      -10.47306        4.35963
H          3.34038      -11.82488       -3.24836
H          3.83896      -13.17788       -2.23687
H          5.55124      -10.74519       -3.00341
H          5.74073      -12.40575       -3.59466
H          6.08603      -12.02044       -1.89842
H          5.05108      -13.30123        0.18471
H          2.23430      -13.95893        1.25999
H          7.46430      -17.03679        0.53479
H          6.86037      -18.54142        3.16660
H         11.85876      -19.98208        2.89627
