115

C         -1.55190        1.46796       -4.43519
C         -0.73027        0.68131       -5.15643
C         -1.09786        0.22779       -6.45084
N         -1.42887       -0.13966       -7.50036
C          0.46535        0.15543       -4.59240
N          1.44364       -0.24960       -4.11835
C         -2.91916        1.92314       -4.80618
C         -3.68141        1.89944       -3.62807
C         -4.97217        2.36981       -3.53406
C         -5.52101        2.95621       -4.67223
C         -4.77830        3.00131       -5.89404
C         -3.47334        2.45564       -5.95878
C         -5.35980        3.64006       -6.99939
C         -6.61950        4.23928       -6.89907
C         -7.32852        4.19575       -5.70158
C         -6.78618        3.54756       -4.59631
C         -2.83109        1.48710       -2.50295
O         -3.18164        0.91862       -1.49415
C         -1.44354        1.74922       -2.99465
C         -0.51614        2.53192       -2.40622
C         -0.75586        3.36110       -1.25154
S         -2.27140        4.08564       -0.97087
C         -1.76451        5.16464        0.26749
C         -0.37023        5.03660        0.35559
C          0.09962        3.78508       -0.24695
C          1.41509        3.14265        0.15260
N          1.22132        1.71927        0.69724
O          2.25219        1.10532        1.00552
O          0.07066        1.28719        0.84026
C          2.08476        3.91398        1.30723
C          2.06722        5.41680        1.06485
C          0.62885        5.97411        1.01711
N          0.73339        7.30420        0.27057
O          1.00351        8.30356        0.94953
O          0.60376        7.29342       -0.96316
C         -2.74899        5.99751        0.92550
N         -3.94654        6.50875        0.35246
C         -4.50123        6.36377       -0.97385
C         -5.44096        5.16697       -1.06823
C         -4.71595        7.23030        1.27979
O         -5.79033        7.78156        1.15690
C         -3.89940        7.16371        2.47534
C         -2.71392        6.38147        2.22022
C         -1.99982        6.34493        3.53043
O         -0.97680        5.74384        3.79140
N         -2.79331        7.15621        4.38000
C         -2.52065        7.31028        5.79842
C         -3.21488        6.24659        6.63477
C         -3.92707        7.61268        3.72440
C         -4.98131        8.40124        4.29470
C         -4.82052        9.63538        4.79523
C         -5.92131       10.37614        5.31109
S         -5.65051       11.52455        6.55522
C         -7.31307       11.99290        6.64126
C         -8.05441       11.27054        5.71812
C         -7.25923       10.35134        4.96635
C         -9.46582       11.42741        5.49988
N        -10.60491       11.55054        5.33426
C         -7.65328       13.01011        7.58684
C         -8.86199       13.09382        8.16442
C         -9.17669       14.10940        9.14598
C         -9.57587       13.89560       10.41032
C         -9.97086       14.86997       11.45716
C         -9.57345       16.16400       11.56740
C         -9.93004       16.99055       12.67906
N        -10.21470       17.65836       13.57331
C         -8.70989       16.79545       10.62069
N         -8.00694       17.31525        9.85524
C        -10.74771       14.09657       12.47789
C        -10.60756       12.73027       12.20102
C         -9.84302       12.52182       10.96637
O         -9.54368       11.43704       10.51225
C        -11.17699       11.72223       12.96422
C        -11.95566       12.08824       14.06289
C        -12.15216       13.46607       14.35815
C        -11.54773       14.46158       13.55484
C        -12.95723       13.80988       15.45463
C        -13.55170       12.82271       16.24432
C        -13.35089       11.47664       15.95236
C        -12.55722       11.11009       14.86686
H         -5.49070        2.35272       -2.58025
H         -2.90278        2.52248       -6.88197
H         -4.83048        3.70085       -7.94812
H         -7.04539        4.75296       -7.75731
H         -8.30210        4.67304       -5.62280
H         -7.35032        3.53200       -3.66535
H          0.39939        2.75948       -2.95293
H          2.08668        3.05806       -0.71053
H          3.12086        3.57607        1.43414
H          1.57346        3.70409        2.25773
H          2.62743        5.63408        0.14501
H          2.61102        5.91436        1.87835
H          0.32565        6.21412        2.02979
H         -3.70615        6.36291       -1.72210
H         -5.10201        7.25917       -1.18906
H         -4.94705        4.24069       -0.77436
H         -5.81661        5.05198       -2.08765
H         -6.29926        5.27038       -0.39589
H         -2.82100        8.30851        6.13182
H         -1.43877        7.23628        5.95235
H         -4.30032        6.27082        6.49258
H         -3.00859        6.40598        7.69765
H         -2.86457        5.24549        6.36407
H         -5.96952        7.94682        4.23798
H         -3.83391       10.09363        4.82013
H         -7.65969        9.71376        4.18493
H         -6.87106       13.71211        7.87634
H         -9.66526       12.39591        7.94331
H         -9.10735       15.11240        8.73700
H        -11.02646       10.68122       12.69026
H        -11.74355       15.50107       13.79853
H        -13.13053       14.85430       15.70746
H        -14.17356       13.10672       17.08966
H        -13.81439       10.70983       16.56803
H        -12.41520       10.05241       14.65234
