97

C         -5.26754        0.46777       -4.28811
C         -3.91901        0.39692       -4.37313
C         -3.24260       -0.19145       -5.48077
N         -2.69300       -0.67347       -6.38224
C         -3.05576        0.97148       -3.39093
N         -2.36765        1.43663       -2.58244
C         -6.24689        0.04067       -5.33580
C         -7.47000        0.66098       -5.07171
C         -8.62163        0.47793       -5.82842
C         -8.54787       -0.39734       -6.93252
C         -7.32632       -1.03129       -7.20819
C         -6.16359       -0.83045       -6.41711
S         -7.46174       -2.05424       -8.59600
C         -9.09094       -1.66570       -8.80548
C         -9.56521       -0.78814       -7.86846
Br       -10.14668       -2.36855      -10.18409
C         -7.39478        1.46450       -3.84655
O         -8.26873        2.20298       -3.44467
C         -6.05591        1.15087       -3.23482
C         -5.77788        1.33165       -1.93053
C         -6.68283        1.96504       -1.03380
S         -6.57995        3.65325       -0.84684
C         -7.99661        3.73289        0.13137
C         -8.43372        2.45614        0.47767
C         -7.64902        1.44517       -0.19432
C         -7.86055        0.03349       -0.04286
N         -8.01698       -1.10510        0.09541
C         -9.57799        2.10506        1.38258
F        -10.25797        3.17824        1.85946
F        -10.48996        1.32460        0.74827
F         -9.15087        1.40684        2.46549
C         -8.50644        5.00439        0.52842
C         -8.35789        6.11400       -0.21964
C         -8.83691        7.45433        0.16370
C         -8.91956        7.93373        1.48083
C         -9.48959        9.21177        1.81598
N         -9.58795        9.55569        3.12462
C         -9.09808        8.70266        4.07373
C         -8.52603        7.50209        3.74122
N         -8.44235        7.12339        2.45121
C         -8.00406        6.55868        4.68871
N         -7.58362        5.77348        5.43397
C         -9.21276        9.11931        5.43096
N         -9.28789        9.41033        6.55655
C         -9.94310       10.09500        0.80670
C         -9.74943        9.71215       -0.54988
C         -9.19178        8.35636       -0.87596
N         -9.10644        8.13176       -2.19910
S         -9.61560        9.51018       -2.95923
N        -10.03193       10.43365       -1.64865
C        -10.64874       11.36035        1.09164
C        -10.07594       12.56038        1.26098
C        -10.75229       13.74364        1.75164
C         -9.90654       14.64458        2.28235
C         -8.51493       14.22222        2.21438
S         -8.37531       12.86504        1.08591
C         -7.48657       14.63611        2.97917
C         -7.50566       15.60926        4.05475
C         -6.42616       15.54640        4.85529
C         -5.49011       14.50347        4.48359
S         -5.89309       13.89246        2.90063
C         -4.48173       14.05202        5.25176
C         -3.61799       12.91500        4.97233
C         -2.32050       12.82025        5.36191
C         -1.80840       11.57932        4.81908
C         -0.56154       11.07326        4.78383
C         -0.38867        9.85706        4.00863
C          0.72628        9.19703        3.64201
C          0.36851        8.06442        2.77178
C         -0.97722        7.99872        2.65702
C         -1.50454        9.12946        3.38134
C         -2.75940        9.60174        3.47133
C         -2.90802       10.86730        4.16058
C         -3.98357       11.65144        4.29855
C          1.26220        7.17973        2.06931
C          2.19316        7.62186        1.21406
H         -9.54933        0.97549       -5.55804
H         -5.26280       -1.37742       -6.67251
H        -10.58748       -0.42992       -7.83799
H         -4.84399        1.00387       -1.48650
H         -9.03679        5.04363        1.47527
H         -7.87787        6.06586       -1.19488
H        -11.71479       11.24261        1.26578
H        -11.82913       13.84715        1.75692
H        -10.22802       15.55756        2.76436
H         -8.32823       16.29070        4.21994
H         -6.28142       16.17001        5.72663
H         -4.28714       14.54710        6.20100
H         -1.73565       13.55076        5.89619
H          0.29128       11.56312        5.23332
H          1.74160        9.45836        3.89395
H         -1.55167        7.30839        2.06135
H         -3.60658        9.12920        2.99347
H         -4.97065       11.42684        3.92867
H          1.13490        6.11270        2.23124
H          2.31947        8.68026        1.00331
H          2.83558        6.92743        0.68282
