99

C          4.34553        4.30764        2.79840
C          4.59710        5.47254        3.43702
C          5.75286        6.25655        3.16093
N          6.69233        6.89478        2.92319
C          3.74743        5.95010        4.47687
N          3.04088        6.33601        5.31254
C          5.23956        3.60411        1.85357
C          4.97833        2.22816        1.95442
C          5.63620        1.27931        1.19490
C          6.55805        1.73120        0.24235
C          6.78027        3.12996        0.06873
C          6.12171        4.06265        0.89006
C          7.64523        3.56324       -0.94508
C          8.30289        2.64230       -1.76069
C          8.10973        1.27663       -1.56972
C          7.24036        0.82313       -0.57731
C          3.79727        1.99699        2.81271
O          3.31503        0.93065        3.12684
C          3.25319        3.37241        3.07118
C          1.91679        3.50603        3.09832
C          1.11351        4.71048        2.81499
C          1.47861        5.68006        1.87107
F          2.62374        5.57266        1.18144
C          0.65941        6.77027        1.58929
F          1.08614        7.68295        0.70157
C         -0.59119        6.90471        2.18916
C         -0.97701        5.92408        3.10912
C         -0.14497        4.84447        3.40729
F         -0.58617        3.90882        4.26216
F         -2.16907        5.99916        3.72135
C         -1.42283        8.06288        1.84716
C         -2.76006        8.01440        1.78625
C         -3.48260        9.16719        1.43833
S         -3.96323        9.55294       -0.16834
C         -4.76667       11.03789        0.30285
C         -4.63387       11.14043        1.64923
C         -3.93792       10.12654        2.26759
N         -3.78605       10.19883        3.62305
C         -4.45490       11.38032        3.91418
C         -4.57313       11.88714        5.24067
N         -4.66320       12.28306        6.32315
C         -4.97876       11.97603        2.74739
C         -5.38651       11.83331       -0.69681
C         -6.01538       12.97372       -0.39508
C         -6.62176       13.78225       -1.37434
N         -7.17091       13.24270       -2.53177
C         -7.69317       14.24141       -3.33995
C         -7.50306       15.40731       -2.66387
C         -6.86973       15.12370       -1.45892
S         -6.60047       16.54587       -0.55556
O         -7.44985       16.42183        0.61029
O         -5.16351       16.69922       -0.50255
C         -7.35727       17.56006       -1.82555
C         -7.76693       16.78141       -2.85763
C         -7.45737       18.98929       -1.67432
C         -7.94628       19.82794       -2.60210
C         -7.98680       21.26670       -2.45935
C         -6.92819       22.11188       -2.34758
N         -5.52111       21.74358       -2.35660
O         -5.19646       20.56247       -2.52161
O         -4.70933       22.66863       -2.20762
C         -7.35440       23.49166       -2.29234
C         -8.68919       23.54011       -2.39102
C         -9.19871       22.16826       -2.49624
C        -10.51089       21.83047       -2.57410
C        -11.03106       20.45974       -2.57924
C        -12.37016       20.51767       -2.60357
C        -12.77671       21.90618       -2.62932
N        -14.17561       22.30372       -2.62249
O        -14.47844       23.49410       -2.48277
O        -15.00611       21.38889       -2.73494
C        -11.71033       22.73906       -2.63356
C        -11.74109       24.18295       -2.72144
C        -12.18084       24.86724       -3.78601
H          5.39028        0.22704        1.30407
H          6.27472        5.12557        0.72385
H          7.81086        4.62547       -1.11605
H          8.96817        2.99294       -2.54579
H          8.63104        0.56160       -2.20108
H          7.09506       -0.24839       -0.45588
H          1.31308        2.60311        3.22636
H         -0.88804        8.97979        1.59415
H         -3.32399        7.10767        1.98191
H         -3.30470        9.54546        4.22976
H         -5.53881       12.90255        2.72615
H         -5.30593       11.49048       -1.72539
H         -6.04366       13.35453        0.62018
H         -7.19578       12.25587       -2.75368
H         -8.14021       14.00151       -4.29438
H         -8.24209       17.14325       -3.75815
H         -7.04894       19.38279       -0.74266
H         -8.34137       19.45480       -3.54429
H         -6.68828       24.33546       -2.19007
H         -9.25082       24.45585       -2.36825
H        -10.47639       19.53917       -2.53955
H        -13.05198       19.67930       -2.60115
H        -11.39326       24.72885       -1.84745
H        -12.57941       24.37832       -4.67005
H        -12.20279       25.95320       -3.77338
