104

C          3.99334        6.38824       -4.36992
C          4.28677        5.29004       -5.10315
C          5.58336        4.70984       -5.09381
N          6.64782        4.24223       -5.07858
C          3.33530        4.69611       -5.98586
N          2.53860        4.21928       -6.68080
C          4.90082        7.17511       -3.48504
C          4.36385        8.46688       -3.36152
C          4.88197        9.44595       -2.53550
C          5.98245        9.11233       -1.74839
C          6.56059        7.81124       -1.84405
C          6.01564        6.84733       -2.72638
C          7.65332        7.50640       -1.01928
C          8.15048        8.44637       -0.11163
C          7.57027        9.70839       -0.01651
C          6.49482       10.04260       -0.83555
C          3.09869        8.56865       -4.09874
O          2.52568        9.59038       -4.40772
C          2.73358        7.15055       -4.41473
C          1.48583        6.65633       -4.35725
C          0.38938        7.43975       -3.91965
S          0.03178        7.43660       -2.25203
C         -1.29324        8.51564       -2.42584
C         -1.44560        8.87442       -3.76021
C         -0.50992        8.21512       -4.61635
C         -2.44160        9.78946       -4.24378
N         -3.24701       10.52915       -4.63769
C         -2.08205        8.91333       -1.30562
C         -1.88281        8.47206       -0.05166
C         -2.74259        8.83997        1.00567
S         -4.14866        9.83755        0.83425
C         -4.54372        9.78259        2.50882
C         -3.64016        8.97830        3.11188
C         -2.65291        8.46741        2.30376
N         -1.72348        7.66560        2.90422
C         -2.17598        7.64694        4.22213
C         -1.51974        6.90869        5.24511
N         -0.97162        6.29289        6.05849
C         -3.32981        8.44136        4.38279
C         -5.64247       10.52354        2.97129
C         -5.63587       11.01402        4.21355
C         -6.71300       11.78238        4.74955
C         -6.69337       12.27369        6.00307
C         -7.93574       13.00358        6.22212
C         -8.70120       12.87663        4.97578
C         -7.96257       12.15985        4.11875
C         -9.98212       13.37207        4.65134
N        -11.03431       13.76648        4.36473
C         -8.25656       13.65920        7.35220
C         -9.48861       14.40836        7.55301
C         -9.46611       14.94065        8.78702
C         -8.21126       14.56980        9.42413
C         -7.48897       13.79977        8.59573
C         -6.23058       13.25471        8.93981
N         -5.20012       12.80330        9.22709
C        -10.53320       15.76148        9.28169
C        -10.79478       15.90239       10.58557
C        -11.90675       16.68976       11.05365
C        -11.98576       17.29732       12.24482
C        -13.11936       18.02062       12.84846
C        -14.08941       18.71127       12.18730
C        -15.09304       19.45199       12.86747
N        -15.92012       20.05312       13.41874
C        -14.14729       18.79820       10.76795
N        -14.19692       18.86393        9.61042
C        -12.88164       18.00287       14.32096
C        -11.57158       17.55981       14.55430
C        -10.91650       17.19474       13.29542
O         -9.75320       16.86986       13.17907
C        -11.01397       17.42430       15.81468
C        -11.80868       17.73901       16.91867
C        -13.15132       18.16945       16.72187
C        -13.68010       18.28906       15.41823
C        -13.93574       18.47013       17.84444
C        -13.41236       18.35677       19.13382
C        -12.09867       17.93667       19.32126
C        -11.30104       17.62638       18.22034
H          4.39575       10.41498       -2.46794
H          6.44739        5.85011       -2.74922
H          8.12418        6.52629       -1.06449
H          8.99049        8.18962        0.52903
H          7.95146       10.43351        0.69840
H          6.04950       11.03166       -0.74220
H          1.30392        5.58651       -4.40012
H         -0.48908        8.33471       -5.69251
H         -2.90436        9.59079       -1.52397
H         -1.06404        7.80302        0.18910
H         -0.92010        7.20943        2.49138
H         -3.86968        8.59113        5.31007
H         -6.45929       10.71340        2.28184
H         -4.78289       10.85767        4.87029
H         -5.87877       12.13355        6.69317
H         -8.24375       11.88983        3.11117
H        -10.30938       14.52367        6.86556
H         -7.92932       14.87216       10.42278
H        -11.14198       16.27455        8.53804
H        -10.18004       15.39352       11.32442
H        -12.74174       16.70891       10.35831
H         -9.99374       17.06613       15.92360
H        -14.71633       18.59078       15.30690
H        -14.96532       18.80283       17.72659
H        -14.03245       18.59921       19.99333
H        -11.69292       17.85084       20.32621
H        -10.27732       17.29777       18.38926
