112

C        -13.98988      -11.01063      -17.43396
S        -15.15746      -11.34682      -18.64719
C        -15.79144      -12.68230      -17.77051
C        -15.13916      -12.86301      -16.57150
C        -14.07506      -11.89122      -16.37964
C        -13.24341      -11.86751      -15.23943
C        -13.56902      -12.89194      -14.32466
C        -14.61159      -13.83402      -14.51242
C        -15.46199      -13.86527      -15.63643
O        -16.46416      -14.77786      -15.81922
C        -17.02419      -15.27387      -14.60140
C        -12.17727      -10.90209      -15.04422
C        -11.37696      -10.89308      -13.96709
C        -10.35378       -9.92889      -13.84642
S         -8.93529      -10.33058      -12.98952
C         -8.20744       -8.81634      -13.31957
C         -9.06245       -7.99403      -14.01928
C        -10.29308       -8.63261      -14.32075
C         -6.87418       -8.50800      -12.88444
C         -6.36139       -7.26898      -12.55917
C         -4.99073       -7.33920      -12.16809
C         -4.48582       -8.62391      -12.22488
S         -5.68506       -9.71978      -12.75416
C         -3.14985       -9.05864      -11.90159
S         -2.67309      -10.70237      -12.01016
C         -1.09342      -10.37695      -11.46132
C         -0.91740       -9.02525      -11.23677
C         -2.09534       -8.27112      -11.48367
C         -0.20531      -11.46368      -11.29633
C          0.76716      -11.40340      -10.37790
C          1.60891      -12.52076      -10.17589
S          2.85317      -12.39156       -8.94376
C          3.19638      -13.98516       -9.21807
C          2.43862      -14.52869      -10.22933
N          1.52642      -13.69762      -10.79515
C          2.67223      -16.01148      -10.39000
C          3.65120      -16.20083       -9.24238
C          3.94895      -15.00542       -8.61934
S          4.97253      -15.11187       -7.32646
C          5.00261      -16.84527       -7.48786
C          4.26802      -17.28194       -8.58943
C          5.71350      -17.57389       -6.50520
C          5.35383      -18.82119       -6.17565
C          6.05452      -19.51729       -5.16022
S          6.13085      -21.22645       -5.21913
C          7.09584      -21.31533       -3.81053
C          7.32359      -20.06141       -3.28102
C          6.73066      -19.03094       -4.05702
C          7.54739      -22.58209       -3.30061
C          7.84870      -23.72543       -4.01546
C          8.27800      -24.79601       -3.17586
C          8.30592      -24.43983       -1.84125
S          7.78106      -22.82244       -1.62971
C          8.70362      -25.25962       -0.72399
S          9.42237      -24.58155        0.67485
C          9.63536      -26.11014        1.42627
C          9.11887      -27.11508        0.63254
C          8.59531      -26.63114       -0.60479
C         10.25592      -26.13451        2.69808
C         11.01543      -27.17845        3.10327
C         11.65567      -27.19961        4.38370
S         10.83334      -26.42884        5.72435
C         12.02806      -26.83711        6.84981
C         13.04607      -27.54357        6.26770
C         12.84454      -27.78694        4.83207
C         13.79787      -28.53094        4.07797
C         14.90754      -28.94820        4.86151
C         15.07117      -28.69371        6.25145
C         14.14821      -27.97417        7.02387
O         14.25762      -27.67992        8.35248
C         15.44565      -28.13456        8.98984
C         13.76458      -28.80307        2.63913
C         14.24843      -29.92968        2.09671
H        -13.31431      -10.18010      -17.58369
H        -16.60677      -13.24917      -18.19319
H        -13.00177      -13.00331      -13.40196
H        -14.70692      -14.56509      -13.71548
H        -17.74853      -16.05441      -14.84367
H        -17.54004      -14.46799      -14.06754
H        -16.28146      -15.74825      -13.95099
H        -12.02302      -10.17326      -15.83028
H        -11.45895      -11.62936      -13.17491
H         -8.81479       -6.98558      -14.32714
H        -11.10157       -8.16511      -14.87105
H         -6.93896       -6.35443      -12.58104
H         -4.41258       -6.47674      -11.86168
H          0.01820       -8.59308      -10.90270
H         -2.15509       -7.19857      -11.35186
H         -0.35669      -12.36662      -11.88675
H          0.89417      -10.53487       -9.74139
H          3.13346      -16.24780      -11.35183
H          1.75555      -16.58487      -10.23150
H          4.15731      -18.32207       -8.86945
H          6.53735      -17.07420       -6.00223
H          4.52565      -19.32497       -6.66806
H          7.90014      -19.87699       -2.38126
H          6.79737      -17.97803       -3.80979
H          7.77769      -23.79518       -5.09448
H          8.57225      -25.76912       -3.54858
H          9.11098      -28.15818        0.92605
H          8.15088      -27.26796       -1.35987
H         10.12614      -25.25868        3.32658
H         11.16357      -28.02208        2.44161
H         11.91937      -26.54166        7.88457
H         15.71935      -29.49373        4.37781
H         15.97823      -29.08782        6.70236
H         15.42482      -27.79917       10.03024
H         16.33698      -27.70395        8.51993
H         15.49049      -29.22892        8.99035
H         13.38226      -28.02303        1.98722
H         14.66776      -30.73641        2.69504
H         14.25408      -30.07677        1.02286
