92

C        -11.00573       -2.82101        0.06977
S         -9.33279       -3.09863        0.30936
C         -9.46196       -4.82546        0.06180
C        -10.79435       -5.15118       -0.18080
C        -11.67119       -3.98858       -0.19042
C        -13.04764       -4.00908       -0.44042
C        -13.51104       -5.32173       -0.69198
N        -14.91628       -5.45948       -1.04412
O        -15.74509       -5.01823       -0.23898
O        -15.16747       -5.95785       -2.14703
C        -12.66786       -6.47615       -0.67633
N        -13.26293       -7.77915       -0.91081
O        -14.12500       -8.15019       -0.10555
O        -12.83572       -8.42252       -1.87546
C        -11.26533       -6.45418       -0.41754
C         -8.23718       -5.59205        0.10604
C         -7.53949       -5.73766       -1.03952
C         -6.25419       -6.39372       -1.08633
C         -5.61559       -6.96951        0.10553
C         -6.14806       -6.92550        1.32700
S         -7.69758       -6.18290        1.67502
C         -4.39598       -7.54163       -0.32868
C         -4.25756       -7.35245       -1.68305
C         -3.07641       -7.89845       -2.21394
C         -2.34202       -8.49794       -1.19968
S         -3.11618       -8.37290        0.35348
C         -5.41495       -6.62071       -2.14014
C         -5.61865       -6.24181       -3.51532
C         -5.77477       -4.97293       -3.92175
C         -5.97580       -4.66714       -5.28916
N         -5.64671       -3.39265       -5.69997
C         -5.89093       -3.30305       -7.04093
C         -5.80640       -2.40986       -8.13563
C         -6.28538       -3.13272       -9.21396
N         -6.62890       -4.40160       -8.80857
C         -6.38207       -4.49127       -7.46811
C         -6.45654       -5.38523       -6.37461
C         -6.46123       -2.82139      -10.57831
C         -7.63237       -2.31196      -10.99123
C         -7.93664       -1.95402      -12.36503
C         -8.28813       -0.68994      -12.65173
C         -8.61126       -0.26250      -13.98923
C         -8.58791       -1.20319      -15.12203
C         -8.29266       -2.50028      -15.03092
S         -7.86449       -3.27508      -13.53570
C         -8.96807       -0.46720      -16.26064
C         -9.21188        0.83814      -15.90438
C         -9.62299        1.63639      -16.98234
C         -9.65961        0.87789      -18.14481
S         -9.21027       -0.77860      -17.88314
C         -8.98931        0.95598      -14.47999
C         -9.26288        2.15637      -13.71571
C         -8.65952        3.34832      -13.88332
C         -9.03696        4.52448      -13.14516
S        -10.70809        4.80906      -12.72845
C        -10.39372        6.31571      -11.98605
C         -9.06485        6.63147      -12.05663
C         -8.27696        5.60664      -12.71280
C         -6.88655        5.70786      -12.88821
C         -6.37033        6.92753      -12.36175
N         -4.94251        7.14029      -12.52359
O         -4.19045        6.26658      -12.07624
O         -4.59713        8.15391      -13.14532
C         -7.16855        7.93259      -11.73393
N         -6.55026        9.14488      -11.22132
O         -5.66010        9.00248      -10.37450
O         -7.00931       10.21930      -11.62455
C         -8.56702        7.82832      -11.53942
H        -11.40199       -1.81447        0.13162
H        -13.69129       -3.13557       -0.46507
H        -10.65789       -7.35099       -0.40398
H         -7.91747       -5.33546       -1.97406
H         -5.62023       -7.36847        2.16790
H         -2.76292       -7.86910       -3.25041
H         -1.38881       -9.00505       -1.28275
H         -5.59212       -7.05946       -4.23174
H         -5.73076       -4.15892       -3.20072
H         -5.26817       -2.63432       -5.14806
H         -5.45101       -1.38877       -8.14146
H         -7.00194       -5.15689       -9.37002
H         -6.81136       -6.40625       -6.37847
H         -5.63870       -3.00270      -11.26483
H         -8.42783       -2.12179      -10.27173
H         -8.31099        0.06118      -11.86732
H         -8.31568       -3.13322      -15.91195
H         -9.88193        2.68618      -16.93898
H         -9.93264        1.20017      -19.14018
H        -10.06447        2.03484      -12.99000
H         -7.84723        3.44580      -14.60067
H        -11.20638        6.88381      -11.55157
H         -6.26307        4.96219      -13.36667
H         -9.16150        8.59237      -11.05143
