90

C         -5.07728       -2.01753        1.34363
C         -4.62923       -3.08931        0.68979
C         -3.28168       -2.85750        0.29582
C         -2.89726       -1.51743        0.76917
O         -1.83837       -0.94406        0.64025
N         -4.06756       -1.07787        1.40080
C         -2.90697       -3.95541       -0.33640
O         -3.91779       -4.95582       -0.41132
C         -5.02025       -4.41902        0.23384
O         -6.10512       -4.94952        0.39028
C         -1.64412       -4.21252       -0.92008
S         -1.06298       -5.82636       -1.03150
C          0.39282       -5.36683       -1.80730
C          0.44876       -3.99597       -1.96144
C         -0.71294       -3.33791       -1.45390
C          1.39376       -6.33039       -2.20495
C          2.75501       -6.12278       -2.30910
C          3.45740       -7.28997       -2.73773
C          2.62235       -8.36922       -2.96497
S          0.99351       -7.93537       -2.65030
C          2.97559       -9.70263       -3.40769
S          4.60637      -10.15364       -3.69974
C          4.18836      -11.74815       -4.17977
C          2.82231      -11.93578       -4.08996
C          2.13122      -10.77116       -3.64958
C          5.21855      -12.64450       -4.58077
C          4.97180      -13.63080       -5.45567
C          5.99662      -14.51729       -5.86096
N          5.89271      -15.04622       -7.12833
C          6.96725      -15.86260       -7.33275
C          7.56092      -16.70221       -8.30155
C          8.71041      -17.18696       -7.69700
N          8.80419      -16.67806       -6.42035
C          7.73135      -15.85775       -6.21492
C          7.13981      -15.00968       -5.25011
C          9.74616      -18.04950       -8.12533
C          9.51274      -18.98326       -9.05874
C         10.54313      -19.85275       -9.50865
S         10.12115      -21.40077      -10.10641
C         11.74936      -21.84162      -10.42460
C         12.59998      -20.80271      -10.09627
C         11.91156      -19.66917       -9.57392
C         12.11815      -23.13175      -10.96964
C         13.39195      -23.57685      -11.27384
C         13.40407      -24.90535      -11.79750
C         12.13839      -25.44983      -11.88945
S         10.96121      -24.34603      -11.33017
C         11.75957      -26.75649      -12.36719
S         12.80938      -28.09763      -12.21676
C         11.69788      -29.17313      -12.97096
C         10.53576      -28.50986      -13.31279
C         10.56857      -27.12864      -12.96081
C         12.08192      -30.53367      -13.11866
C         11.62630      -31.31105      -14.11378
C         12.00644      -32.68597      -14.30124
C         11.63897      -33.52907      -15.27112
C         12.26382      -34.78439      -15.03524
C         13.07647      -34.67888      -13.81879
O         13.75694      -35.52967      -13.29179
N         12.85812      -33.35639      -13.43731
C         11.86956      -35.57836      -16.01031
O         10.99942      -34.96845      -16.93592
C         10.83557      -33.65748      -16.48847
O         10.15726      -32.79315      -17.01021
H         -6.04981       -1.84768        1.78230
H         -4.13502       -0.17068        1.84425
H          1.27549       -3.47633       -2.43108
H         -0.85428       -2.26328       -1.49705
H          3.24079       -5.18273       -2.07732
H          4.53216       -7.32119       -2.86967
H          2.33002      -12.87281       -4.32093
H          1.05600      -10.73607       -3.52150
H          6.22089      -12.48707       -4.18933
H          3.98494      -13.74961       -5.89527
H          5.18089      -14.87158       -7.82615
H          7.21185      -16.91151       -9.30315
H          9.51358      -16.85989       -5.72201
H          7.49032      -14.79291       -4.25069
H         10.72763      -17.95048       -7.66864
H          8.51410      -19.11890       -9.46809
H         13.67465      -20.83779      -10.22172
H         12.40548      -18.75367       -9.27176
H         14.28842      -22.98586      -11.13457
H         14.30672      -25.42296      -12.10019
H          9.68400      -28.98843      -13.78112
H          9.74945      -26.44356      -13.14588
H         12.79207      -30.91633      -12.39303
H         10.94052      -30.90352      -14.85713
H         13.29045      -32.96726      -12.61304
H         12.10787      -36.60959      -16.20285
