94

C         -4.21613       -2.57754        8.23240
C         -4.42053       -3.62738        9.13428
C         -4.35627       -4.96056        8.71374
C         -4.05571       -5.27404        7.38854
C         -3.80104       -4.23752        6.49980
C         -3.90858       -2.87517        6.91063
C         -3.72488       -1.99064        5.70672
C         -3.46772       -0.66267        5.67131
C         -3.37601        0.13436        6.84526
N         -3.30620        0.79165        7.80005
C         -3.21254        0.02494        4.44816
N         -3.02224        0.58059        3.44691
C         -3.78430       -2.91792        4.54612
C         -3.42857       -4.26026        5.05774
C         -2.67913       -5.19718        4.43051
C         -2.03352       -4.92381        3.18758
N         -1.44847       -4.68979        2.21303
C         -2.36717       -6.45300        5.02005
N         -2.13918       -7.48846        5.49374
C         -4.43714       -2.66062        3.39487
C         -4.87698       -3.63016        2.42673
C         -5.70931       -4.67430        2.64580
C         -5.89825       -5.34062        1.40194
C         -5.23569       -4.71549        0.42363
C         -4.51443       -3.53127        0.94535
C         -5.39558       -5.40862       -0.81064
C         -6.18080       -6.48903       -0.59694
C         -6.58368       -6.54263        0.88212
C         -6.51437       -7.37653       -1.64792
N         -7.31091       -8.45515       -1.33285
C         -7.50330       -9.18458       -2.46842
C         -8.14030      -10.34902       -2.94687
C         -7.82029      -10.40042       -4.29288
N         -7.05741       -9.30207       -4.62560
C         -6.85461       -8.57539       -3.48783
C         -6.20783       -7.41726       -3.00034
C         -8.12438      -11.31458       -5.32470
C         -8.40433      -12.59628       -5.04667
C         -8.74571      -13.56168       -6.05179
C         -9.48958      -14.67481       -5.86356
C         -9.64816      -15.31075       -7.13166
C         -9.02395      -14.60780       -8.08483
C         -8.33095      -13.43506       -7.51261
C         -9.37509      -15.08222       -9.37796
C        -10.24703      -16.09786       -9.21492
C        -10.47243      -16.38804       -7.73212
C        -10.83138      -16.87280      -10.27324
C        -11.59169      -16.40319      -11.28268
C        -11.77205      -17.10555      -12.58174
C        -11.98792      -18.42799      -12.76995
C        -12.06110      -19.35153      -11.68784
N        -12.10108      -20.10524      -10.80646
C        -12.20490      -18.99524      -14.05656
N        -12.37684      -19.46648      -15.09910
C        -11.75149      -16.01216      -13.61716
C        -11.83073      -14.74972      -12.95947
C        -11.74767      -13.56502      -13.68274
C        -11.63702      -13.62865      -15.07153
C        -11.57713      -14.86341      -15.72392
C        -11.61383      -16.05962      -15.00026
C        -11.99562      -14.99223      -11.49643
C        -12.63938      -14.18458      -10.61995
C        -13.02444      -12.85117      -10.93357
N        -13.32397      -11.75729      -11.18146
C        -13.12169      -14.66726       -9.36819
N        -13.59301      -15.05064       -8.37941
H         -4.32612       -1.56399        8.60093
H         -4.65278       -3.40563       10.17461
H         -4.54802       -5.76073        9.42634
H         -4.04568       -6.31719        7.09007
H         -4.78820       -1.65870        3.15575
H         -6.18564       -4.95965        3.57077
H         -4.88799       -2.60271        0.50452
H         -3.43744       -3.61253        0.78393
H         -4.94618       -5.09854       -1.74097
H         -6.21170       -7.45692        1.35552
H         -7.66997       -6.47402        0.99636
H         -7.70338       -8.71192       -0.43676
H         -8.74754      -11.05335       -2.39557
H         -6.67319       -9.05013       -5.52727
H         -5.60168       -6.71341       -3.55279
H         -8.15666      -10.94572       -6.34552
H         -8.39659      -12.95796       -4.02011
H         -9.96190      -14.99462       -4.94750
H         -8.68387      -12.50460       -7.96511
H         -7.24436      -13.52133       -7.62047
H         -8.99306      -14.68087      -10.30366
H        -10.10063      -17.37946       -7.45807
H        -11.52261      -16.29938       -7.45009
H        -10.47416      -17.90045      -10.25492
H        -11.75691      -12.58709      -13.21350
H        -11.59117      -12.70857      -15.65150
H        -11.48593      -14.89212      -16.80841
H        -11.51800      -16.98611      -15.55478
