124

C         -1.82912        1.71096       -3.24006
C         -0.78801        2.27660       -2.49986
C         -0.99533        2.72035       -1.18798
C         -2.25817        2.62770       -0.60078
C         -3.30863        2.10518       -1.34795
C         -3.09702        1.62287       -2.66715
C         -4.36240        0.96484       -3.14775
C         -4.71669        0.71542       -4.42818
C         -3.87475        1.02215       -5.53415
N         -3.18161        1.26177       -6.43590
C         -5.99284        0.18177       -4.75552
N         -7.02561       -0.27473       -5.00508
C         -5.18484        0.76909       -1.91126
C         -4.72483        1.82934       -0.97162
C         -5.48982        2.52411       -0.09727
C         -6.89204        2.28583        0.00941
N         -8.03723        2.10988        0.07170
C         -4.96785        3.58357        0.70410
N         -4.52739        4.42904        1.36182
C         -5.80299       -0.40108       -1.59171
C         -6.06308       -0.94425       -0.26491
C         -5.16055       -0.64170        0.73526
S         -5.59563       -1.23112        2.23683
C         -6.85781       -2.19481        1.56569
C         -7.05607       -1.96708        0.19638
C         -8.12242       -2.72091       -0.45847
C         -8.43878       -2.41628       -1.91163
C         -7.59940       -3.25092       -2.87449
C         -8.88226       -3.74058        0.26961
C         -8.56737       -3.89296        1.63566
C         -7.60714       -3.11733        2.30568
C         -7.35897       -3.29773        3.80681
C         -6.28246       -4.33407        4.10548
S         -9.46986       -5.13555        2.42063
C        -10.36374       -5.44093        1.05087
C         -9.99862       -4.68719       -0.05261
C        -10.79462       -5.11580       -1.29538
S        -10.28428       -5.04227       -2.94747
C        -11.33265       -6.28653       -3.29708
C        -12.18307       -6.54843       -2.24702
N        -11.89464       -5.85810       -1.10355
C        -12.88539       -7.88878       -2.40129
C        -12.12617       -8.39676       -3.62407
C        -11.30526       -7.41535       -4.14916
S        -10.28047       -7.93069       -5.34734
C        -10.76216       -9.58725       -5.07059
C        -11.84375       -9.66591       -4.19118
C         -9.93983      -10.59514       -5.64338
C        -10.38247      -11.79804       -6.04071
C         -9.51826      -12.85634       -6.50606
C         -9.87259      -14.16296       -6.25566
S         -8.62425      -15.24592       -6.62697
C         -7.53790      -13.97212       -7.06435
C         -8.20340      -12.74876       -7.14259
C         -7.52148      -11.66870       -7.80052
C         -8.36476      -10.66527       -8.57443
C         -8.50176      -11.13257      -10.01905
C         -6.08207      -11.65934       -7.84272
C         -5.44538      -12.88249       -7.57083
C         -6.16642      -14.07949       -7.35383
C         -5.47489      -15.43570       -7.37072
C         -4.96854      -15.86750       -6.00386
S         -3.72765      -12.72759       -7.57862
C         -3.80216      -11.06709       -7.87189
C         -5.07073      -10.63141       -8.19283
C         -5.30086       -9.27649       -8.65865
C         -4.50120       -8.44432       -9.36540
C         -3.07506       -8.59989       -9.74812
C         -2.54315       -9.56278      -10.53572
C         -3.35175      -10.60129      -11.08030
N         -4.01610      -11.42534      -11.55597
C         -1.19389       -9.51404      -10.98507
N         -0.08957       -9.46384      -11.33899
C         -2.44140       -7.27656       -9.44619
C         -3.47836       -6.30621       -9.41175
C         -3.20664       -4.97650       -9.11740
C         -1.88282       -4.60605       -8.87877
C         -0.85714       -5.56200       -8.90475
C         -1.13110       -6.90743       -9.17746
C         -4.77692       -7.00627       -9.63936
C         -5.83903       -6.49765      -10.30539
C         -5.80043       -5.19653      -10.89072
N         -5.73726       -4.15794      -11.40038
C         -6.97694       -7.28461      -10.62447
N         -7.91755       -7.91292      -10.87903
H         -1.59947        1.33101       -4.22872
H          0.20924        2.34975       -2.93461
H         -0.16176        3.12530       -0.61645
H         -2.37097        2.93733        0.43353
H         -5.95928       -1.11097       -2.39085
H         -4.25400       -0.05952        0.68492
H         -8.29087       -1.35075       -2.11545
H         -9.50817       -2.56002       -2.08339
H         -6.54147       -2.98803       -2.84845
H         -7.95076       -3.10613       -3.90173
H         -7.63407       -4.31710       -2.63512
H         -8.28579       -3.57446        4.32101
H         -7.08341       -2.34195        4.26603
H         -6.55491       -5.32246        3.72219
H         -6.13882       -4.42117        5.18745
H         -5.32115       -4.05867        3.66068
H        -11.10923       -6.22493        1.09765
H        -13.95134       -7.76428       -2.60857
H        -12.71877       -8.52938       -1.53100
H        -12.26777      -10.60198       -3.84694
H         -8.87988      -10.36331       -5.71899
H        -11.43854      -12.03645       -5.92750
H        -10.78866      -14.53737       -5.81883
H         -7.96150       -9.66013       -8.52445
H         -9.37381      -10.57972       -8.17176
H         -7.52610      -11.27537      -10.49469
H         -9.06952      -10.40443      -10.60410
H         -9.04162      -12.08541      -10.06816
H         -4.64332      -15.42182       -8.08531
H         -6.16036      -16.19676       -7.76313
H         -4.23315      -15.16177       -5.60648
H         -4.48878      -16.84897       -6.07726
H         -5.78439      -15.94470       -5.27876
H         -2.87501      -10.51524       -7.85475
H         -6.23938       -8.84908       -8.32520
H         -3.98614       -4.22303       -9.05169
H         -1.64550       -3.56638       -8.65849
H          0.16615       -5.25025       -8.70046
H         -0.31592       -7.62377       -9.15591
