100

C        -11.27808       -9.29956       10.99664
C        -11.03441      -10.55717       11.55421
C        -10.17842      -11.46267       10.92352
C         -9.56707      -11.13676        9.71134
C         -9.84673       -9.90863        9.11945
C        -10.69250       -8.96959        9.77763
C        -10.75246       -7.70832        8.96304
C        -11.64550       -6.69858        9.06690
C        -12.66648       -6.66294       10.05753
N        -13.49846       -6.61805       10.86657
C        -11.67880       -5.60947        8.14879
N        -11.68435       -4.71768        7.40539
C         -9.70494       -7.86709        7.91152
C         -9.42688       -9.32643        7.80438
C         -9.13418      -10.04357        6.69080
C         -9.20772       -9.46799        5.38862
N         -9.32782       -9.02956        4.31997
C         -8.88375      -11.44308        6.70586
N         -8.66011      -12.58242        6.72123
C         -8.93874       -6.85887        7.44365
C         -7.81642       -7.01139        6.58375
C         -6.95414       -7.18215        5.76646
C         -6.08213       -7.53830        4.69844
S         -4.92363       -8.78183        4.82748
C         -4.56377       -8.70462        3.15732
C         -5.26074       -7.69922        2.52609
C         -6.13898       -7.01771        3.42342
C         -3.67814       -9.62754        2.53205
C         -2.97257      -10.50990        2.13131
C         -2.19329      -11.66633        1.87278
C         -2.22027      -12.32823        0.70706
C         -1.57147      -13.59515        0.53164
S         -0.96472      -13.99646       -1.03270
C         -0.40367      -15.55940       -0.55401
C         -0.67432      -15.76301        0.79520
C         -1.35886      -14.65787        1.39875
S         -1.89075      -14.70583        3.09360
C         -0.25352      -14.58529        3.87384
C          0.38783      -15.94844        4.11034
C          0.94112      -16.64603        2.86731
S         -0.32524      -17.25586        1.70716
C          0.20818      -16.38318       -1.55793
C          1.16379      -17.26112       -1.23194
C          1.79635      -18.16521       -2.11756
C          2.47577      -19.01957       -2.61685
C          3.39868      -20.04469       -2.96291
S          4.60414      -19.86387       -4.15303
C          5.30190      -21.37211       -3.76080
C          4.59740      -22.02964       -2.77685
C          3.48947      -21.25901       -2.31495
C          6.49236      -21.85208       -4.37270
C          7.52022      -22.21431       -4.87474
C          8.74862      -22.59578       -5.46813
C          9.09457      -23.88344       -5.59511
C         10.33948      -24.30280       -6.20306
C         10.74217      -24.09362       -7.47437
C         12.15814      -24.21244       -7.94684
C         13.10674      -25.08259       -7.51771
C         12.84832      -26.08330       -6.53523
N         12.65198      -26.88795       -5.72385
C         14.44080      -25.09374       -8.01280
N         15.53762      -25.10822       -8.39503
C         12.29701      -23.17761       -9.03551
C         11.02375      -22.59480       -9.29592
C         10.90013      -21.53713      -10.19292
C         12.02160      -21.11266      -10.90429
C         13.25993      -21.72061      -10.69891
C         13.40727      -22.73806       -9.75172
C          9.98959      -23.33307       -8.50941
C          8.68224      -23.46321       -8.84868
C          8.05097      -22.66323       -9.84475
N          7.52651      -21.99662      -10.63487
C          7.85640      -24.49425       -8.31408
N          7.17753      -25.35721       -7.93099
H        -11.91927       -8.62346       11.54991
H        -11.50684      -10.83001       12.49629
H         -9.98707      -12.43153       11.38162
H         -8.88956      -11.86219        9.27417
H         -9.12455       -5.82951        7.73426
H         -5.18382       -7.48737        1.46631
H         -6.82010       -6.22883        3.12668
H         -1.62642      -12.02773        2.72230
H         -2.77487      -11.91486       -0.13322
H          0.40636      -13.93646        3.28544
H         -0.40263      -14.08824        4.83775
H         -0.30082      -16.61164        4.64834
H          1.23580      -15.78686        4.78935
H          1.66162      -16.00548        2.34548
H          1.49815      -17.52961        3.20015
H         -0.11178      -16.27754       -2.59263
H          1.52338      -17.33953       -0.21461
H          4.87421      -23.00021       -2.38253
H          2.82158      -21.56715       -1.51871
H          9.40145      -21.79989       -5.81508
H          8.45610      -24.67620       -5.20385
H         10.98687      -24.76444       -5.46178
H          9.96367      -21.02103      -10.37295
H         11.92802      -20.30759      -11.63068
H         14.12319      -21.39090      -11.27431
H         14.40216      -23.14480       -9.62155
