104

C         -1.49545        0.05194        1.44389
C         -2.64352       -0.19728        0.77110
C         -3.89391        0.33960        1.17769
N         -4.90596        0.78418        1.53249
C         -2.63965       -0.90387       -0.47096
N         -2.60200       -1.43469       -1.49774
C         -1.30893        1.05856        2.51866
C          0.01097        1.53514        2.41712
C          0.52969        2.51890        3.23418
C         -0.29691        3.03474        4.23398
C         -1.60944        2.52544        4.40887
C         -2.11733        1.52823        3.54339
C         -2.46315        2.91202        5.56227
O         -3.20170        2.13294        6.13797
O         -2.23384        4.20048        5.88253
C         -2.49726        4.53543        7.24567
C          0.29083        4.02016        5.10238
N          0.79915        4.81546        5.77861
C          0.77911        0.74191        1.44114
O          1.93866        0.90333        1.12745
C         -0.14583       -0.36217        1.04290
C          0.39639       -1.54708        0.72056
C         -0.28015       -2.84389        0.70924
C          0.09970       -3.84580       -0.15713
N         -0.44525       -5.07817       -0.16422
C         -1.42185       -5.32065        0.72745
N         -1.86298       -4.42209        1.61630
C         -1.25478       -3.22372        1.61329
C         -2.01185       -6.66018        0.76587
N         -2.06941       -7.56488       -0.30554
C         -1.54812       -7.35900       -1.64259
C         -0.10554       -7.82495       -1.77150
C         -2.66292       -8.78052        0.07369
O         -2.84368       -9.78593       -0.58120
C         -3.01135       -8.55212        1.48783
C         -2.57078       -7.22821        1.84253
C         -2.89119       -7.01718        3.26820
O         -2.67914       -6.03366        3.94768
N         -3.50229       -8.23791        3.63568
C         -4.04739       -8.44553        4.96597
C         -3.22669       -9.38572        5.83896
C         -3.58135       -9.12154        2.55292
C         -4.15555      -10.43415        2.65356
C         -4.77182      -11.08780        1.65644
C         -5.34794      -12.42297        1.79340
N         -5.29979      -13.03176        2.99160
C         -5.86430      -14.24817        3.05624
C         -6.46768      -14.86499        1.98593
C         -6.46700      -14.15522        0.80375
N         -5.91730      -12.93258        0.69529
C         -7.11771      -14.70556       -0.39459
C         -7.11995      -14.07557       -1.58096
C         -7.82461      -14.58234       -2.74066
C         -7.91348      -13.99207       -3.94406
C         -8.74515      -14.37057       -5.11155
C         -9.14098      -15.61720       -5.47373
C         -9.87448      -15.88453       -6.66461
N        -10.47346      -16.09091       -7.63707
C         -8.82214      -16.77963       -4.71048
N         -8.57813      -17.72906       -4.08736
C         -8.93123      -13.11965       -5.90514
C         -8.06404      -12.14055       -5.41761
C         -7.32212      -12.64559       -4.26156
O         -6.42838      -12.04018       -3.71237
C         -7.99888      -10.84856       -5.92167
C         -8.87243      -10.48768       -6.95713
C         -9.79342      -11.44122       -7.44978
C         -9.80257      -12.76111       -6.92031
C        -10.84296      -11.05810       -8.44500
O        -10.94437       -9.97178       -8.98045
O        -11.72928      -12.07701       -8.54479
C        -13.01558      -11.73450       -9.05513
C         -8.80070       -9.12997       -7.42830
N         -8.67516       -8.02320       -7.74485
H          1.56333        2.84049        3.11856
H         -3.11232        1.12247        3.72137
H         -1.93133        5.44403        7.47263
H         -2.14090        3.74596        7.91665
H         -3.56124        4.72818        7.39501
H          1.47260       -1.60218        0.54269
H          0.88629       -3.69769       -0.89247
H         -1.59509       -2.57111        2.41127
H         -1.66201       -6.31092       -1.93619
H         -2.16223       -7.94035       -2.34067
H          0.55514       -7.30388       -1.07239
H          0.26289       -7.64536       -2.78590
H         -0.02163       -8.89587       -1.56026
H         -5.07754       -8.80466        4.86911
H         -4.09815       -7.47578        5.47553
H         -3.13564      -10.38580        5.40926
H         -3.70486       -9.49543        6.81823
H         -2.21358       -9.00258        5.99263
H         -4.08534      -10.92719        3.61697
H         -4.87806      -10.65889        0.66525
H         -5.82183      -14.72796        4.02958
H         -6.91726      -15.84291        2.08109
H         -7.62499      -15.65660       -0.27055
H         -6.59385      -13.12568       -1.67070
H         -8.36896      -15.50107       -2.54105
H         -7.30648      -10.13015       -5.48239
H        -10.53668      -13.47134       -7.28680
H        -13.00103      -11.69919      -10.14638
H        -13.36327      -10.78842       -8.62965
H        -13.70383      -12.52125       -8.73248
