115

C          1.54434        0.52797       -3.21288
C          2.02237       -0.29990       -4.17054
C          2.50778       -1.60318       -3.86478
N          2.91918       -2.65816       -3.61317
C          2.18329        0.12076       -5.52347
N          2.31791        0.49930       -6.61324
C          1.49929        0.24445       -1.74973
C          1.64282        1.46118       -1.07854
C          1.60136        1.61990        0.29210
C          1.13026        0.54544        1.02581
C          0.84250       -0.69324        0.37789
C          1.11872       -0.86277       -1.00568
C          0.17659       -1.67603        1.12517
C         -0.22341       -1.42655        2.44446
C          0.09603       -0.22229        3.06643
C          0.79969        0.75046        2.36765
C          1.41035        2.57197       -1.99940
O          1.29882        3.72176       -1.63260
C          1.18125        1.95576       -3.35738
C          0.58047        2.57392       -4.39257
C          0.02507        3.91896       -4.38523
C         -1.28639        4.23680       -4.55412
N         -2.32202        3.30894       -4.95096
O         -3.47468        3.55444       -4.56873
O         -2.01308        2.35999       -5.68385
C         -1.57586        5.58687       -4.13532
C         -0.43090        6.15372       -3.73186
C          0.66976        5.21174       -3.98865
C          1.99565        5.46311       -3.85477
C          3.09336        4.54156       -4.16443
C          4.21784        5.03128       -3.61403
C          3.90468        6.30186       -3.00487
N          4.86939        7.14148       -2.33175
O          4.48903        7.86388       -1.39985
O          6.04604        7.04194       -2.70461
C          2.62627        6.65334       -3.23552
C          2.04658        7.92129       -2.93307
C          1.50607        8.71550       -3.86310
C          0.77200        9.93978       -3.57906
C          0.52698       10.43885       -2.25904
N          0.90138        9.90390       -1.08415
S          0.38090       10.89330        0.12293
N         -0.38946       12.05101       -0.76776
C         -0.25557       11.70561       -2.06274
C         -0.76953       12.40395       -3.18808
C         -0.52911       11.83422       -4.45600
C          0.20920       10.65985       -4.64570
C         -1.50963       13.63304       -2.96458
C         -2.02256       14.34092       -3.97354
C         -2.79704       15.50888       -3.75598
C         -4.06119       15.60506       -4.19988
C         -4.56756       16.90802       -3.80067
C         -3.45528       17.58182       -3.11178
C         -2.42048       16.73055       -3.08332
C         -3.40339       18.88060       -2.56786
N         -3.33064       19.95474       -2.13181
C         -5.82051       17.33948       -4.02426
C         -6.33445       18.63160       -3.59796
C         -7.61775       18.72150       -3.98335
C         -7.98918       17.48063       -4.64795
C         -6.93365       16.65406       -4.69349
C         -6.97553       15.37244       -5.29271
N         -7.01293       14.32463       -5.78871
C         -8.42822       19.86879       -3.69688
C         -9.46081       20.20854       -4.47491
C        -10.26372       21.37832       -4.23560
C        -11.30059       21.77963       -4.98395
C        -12.08088       23.02797       -4.88207
C        -12.34437       23.72938       -3.75419
C        -13.18646       24.87589       -3.74324
N        -13.86528       25.81261       -3.73753
C        -11.85312       23.35402       -2.47155
N        -11.45746       23.05476       -1.42758
C        -12.66603       23.25971       -6.23427
C        -12.49355       22.09840       -6.99915
C        -11.73145       21.09649       -6.25225
O        -11.51213       19.96641       -6.63522
C        -12.92404       21.96003       -8.30808
C        -13.55263       23.05260       -8.90605
C        -13.72080       24.25936       -8.16940
C        -13.26750       24.35419       -6.83632
C        -14.33874       25.35131       -8.79263
C        -14.78740       25.26038      -10.11111
C        -14.62232       24.07802      -10.82734
C        -14.00648       22.97922      -10.22967
H          1.73755        2.60402        0.73275
H          0.88001       -1.80814       -1.48668
H         -0.11029       -2.61970        0.66633
H         -0.81100       -2.16587        2.98308
H         -0.23350       -0.02134        4.08273
H          1.01315        1.70065        2.85485
H          0.36751        2.02458       -5.30656
H         -2.56488        6.01538       -4.05825
H         -0.38562        7.12305       -3.27000
H          3.03050        3.64705       -4.75891
H          5.21172        4.61708       -3.67291
H          2.05369        8.16056       -1.87571
H          1.53413        8.40760       -4.91133
H         -0.92138       12.30267       -5.35633
H          0.33281       10.30773       -5.67104
H         -1.65841       13.94910       -1.93245
H         -1.93288       14.04947       -5.01329
H         -4.57494       14.81719       -4.72503
H         -1.44316       16.90527       -2.65631
H         -5.80641       19.41250       -3.07801
H         -8.97535       17.27911       -5.04171
H         -8.14888       20.47216       -2.83544
H         -9.68431       19.59496       -5.34286
H         -9.92145       21.97671       -3.39553
H        -12.74965       21.03071       -8.84376
H        -13.38436       25.29982       -6.31712
H        -14.48024       26.28701       -8.25509
H        -15.26755       26.11611      -10.57883
H        -14.97273       24.01068      -11.85413
H        -13.88336       22.06560      -10.80816
