121

C          8.45120        5.70009       -0.66050
C          7.93381        4.66060        0.02898
C          8.63686        4.05056        1.10903
N          9.21881        3.54425        1.98284
C          6.72616        4.03512       -0.40155
N          5.75354        3.53323       -0.78210
C          9.82539        6.25196       -0.50262
C         10.29620        6.55589       -1.78832
C         11.48717        7.21058       -2.03319
C         12.17496        7.72654       -0.93438
C         11.66539        7.53731        0.38650
C         10.51257        6.74277        0.59991
C         12.29081        8.22185        1.44164
C         13.40043        9.04181        1.20955
C         13.92180        9.17198       -0.07453
C         13.31296        8.51562       -1.14117
C          9.19451        6.43262       -2.76538
O          9.26471        6.54822       -3.96974
C          7.95660        6.27116       -1.91839
C          6.88033        6.98867       -2.29881
C          5.68320        7.48367       -1.60538
C          5.62677        8.28579       -0.49894
N          6.70692        8.66915        0.38445
O          7.86093        8.34797        0.10927
O          6.39778        9.31238        1.39744
C          4.34740        8.94000       -0.35033
C          3.58138        8.63673       -1.39677
C          4.29739        7.67215       -2.22551
C          3.69459        7.02426       -3.25007
C          4.08792        5.71254       -3.76049
C          3.29124        5.41688       -4.80331
C          2.37529        6.51791       -5.01354
N          1.47147        6.60047       -6.14774
O          0.43232        7.26625       -6.04548
O          1.80409        5.97729       -7.16616
C          2.51010        7.46607       -4.05961
C          1.76439        8.70549       -4.01091
C          0.81728        8.96695       -3.09731
C          0.05038       10.16757       -3.07176
S         -0.37850       10.80058       -1.53451
C         -1.26664       12.11399       -2.19205
C         -1.26113       12.06403       -3.57886
C         -0.48228       10.95275       -4.08341
C         -0.35869       10.71858       -5.56191
C         -0.45973       12.01058       -6.36898
C          0.84494       12.81232       -6.35072
O          1.71375       12.59724       -7.20120
C          1.09996       13.82511       -5.26359
C         -1.70907       12.80117       -5.99102
C         -1.88322       13.08374       -4.49612
C         -1.78037       13.07341       -1.27044
C         -2.87614       13.81569       -1.48834
C         -3.25823       14.90387       -0.63936
S         -4.95247       15.25087       -0.47538
C         -4.70877       16.63771        0.52117
C         -3.35335       16.86393        0.67802
C         -2.52917       15.83538        0.08285
C         -1.12892       15.81926        0.20162
C         -0.58560       16.88724        0.95757
C          0.91007       16.87119        1.22739
F          1.53631       15.77297        0.71339
F          1.55575       17.94237        0.70097
F          1.18996       16.85595        2.55787
C         -1.40983       17.94029        1.48470
C         -0.78934       19.06869        2.12720
N         -0.28983       19.98989        2.61981
C         -2.82964       17.95382        1.38996
C         -5.83644       17.25363        1.15094
C         -6.60100       18.22768        0.62854
C         -7.66355       19.02751        1.29844
C         -8.54747       18.60916        2.24225
C         -9.59712       19.42284        2.74181
N        -10.46058       20.09677        3.16836
C         -8.51971       17.27930        2.76282
N         -8.48428       16.20480        3.18446
C         -7.71138       20.33489        0.58158
C         -6.98966       20.20721       -0.61309
C         -6.36185       18.87770       -0.70549
O         -5.78265       18.43613       -1.67462
C         -6.84356       21.23761       -1.52912
C         -7.43333       22.47334       -1.23641
C         -8.15067       22.64474       -0.01924
C         -8.27220       21.57022        0.88832
C         -8.73002       23.89449        0.25592
C         -8.61369       24.95308       -0.64788
C         -7.90706       24.78225       -1.83433
C         -7.31649       23.55206       -2.12485
H         11.78484        7.43547       -3.05294
H         10.09925        6.64969        1.60184
H         11.89530        8.15779        2.45362
H         13.85448        9.58806        2.03282
H         14.78836        9.80376       -0.25276
H         13.71459        8.65582       -2.14301
H          6.96581        7.45994       -3.28780
H          4.05226        9.56897        0.47678
H          2.56019        8.94954       -1.44980
H          4.76831        5.02551       -3.28087
H          3.24353        4.48382       -5.34591
H          1.99753        9.39267       -4.81699
H          0.64819        8.25612       -2.28964
H         -1.16838       10.03497       -5.84967
H          0.57127       10.22674       -5.83520
H         -0.57970       11.71366       -7.42122
H          0.33291       14.60049       -5.28238
H          2.05849       14.32153       -5.43843
H          1.14791       13.33765       -4.28885
H         -2.57944       12.21673       -6.31931
H         -1.74681       13.74433       -6.54777
H         -2.95730       13.15371       -4.30532
H         -1.46302       14.06664       -4.25461
H         -1.21008       13.19326       -0.35580
H         -3.51597       13.62263       -2.34272
H         -0.47084       15.06743       -0.21294
H         -3.42860       18.74952        1.81701
H         -5.99736       16.91291        2.16827
H         -6.26881       21.08050       -2.43809
H         -8.79567       21.74261        1.82365
H         -9.28719       24.05746        1.17708
H         -9.07704       25.91160       -0.42564
H         -7.81553       25.60729       -2.53671
H         -6.76407       23.44360       -3.05618
