77

C         -2.26707       -1.43319       -1.19720
C         -2.62471       -2.73187       -1.34237
C         -1.68788       -3.75847       -1.65411
N         -0.92260       -4.59406       -1.90524
C         -3.96018       -3.17990       -1.12300
N         -5.05245       -3.53393       -0.95599
C         -0.88311       -0.87165       -1.27362
C         -0.88400        0.37355       -0.63769
C          0.22236        1.20865       -0.55549
C          1.42483        0.76256       -1.14543
C          1.44357       -0.49316       -1.77351
C          0.29397       -1.32238       -1.86237
S          3.01829       -0.84903       -2.39429
C          3.63580        0.62723       -1.85730
C          2.70407        1.41061       -1.23170
Br         5.42162        1.14168       -2.09251
C         -2.22560        0.69958       -0.13439
O         -2.49281        1.57902        0.65695
C         -3.13557       -0.31986       -0.75197
C         -4.43176       -0.08361       -1.01140
C         -5.05365        1.15595       -0.71391
O         -5.01849        2.24342       -1.58494
C         -5.79466        1.56698        0.35878
C         -6.28748        1.12950        1.62630
O         -6.10744        0.05515        2.17060
N         -7.01664        2.20617        2.09480
C         -7.01192        3.29984        1.25267
O         -7.56485        4.37318        1.41275
C         -6.22058        2.87736        0.14033
C         -5.72532        3.32393       -1.05467
C         -5.85472        4.59711       -1.67222
C         -5.26399        4.86322       -2.84847
C         -5.29596        6.12368       -3.57316
C         -5.90453        7.24285       -3.13788
C         -4.60364        6.18305       -4.82088
C         -4.01580        6.27514       -5.86674
C         -3.31469        6.44914       -7.09254
C         -3.76544        5.93036       -8.24367
C         -3.11577        6.14850       -9.52709
C         -3.54460        5.69253      -10.71495
C         -2.95118        6.02434      -11.99232
C         -3.72059        5.69076      -13.04156
C         -4.98593        5.08812      -12.65619
S         -4.95027        4.68740      -10.94088
C         -6.09528        4.98459      -13.41115
C         -6.26694        5.44303      -14.77767
C         -7.55330        5.63431      -15.11325
C         -8.46979        5.33617      -14.03266
S         -7.65049        4.46025      -12.76840
C         -9.75078        5.73159      -13.98182
C        -10.64611        5.57888      -12.86083
C        -10.50575        6.05570      -11.60346
C        -11.61289        5.77087      -10.69966
C        -12.63068        5.07529      -11.23897
Si       -12.29114        4.65871      -13.03201
H          0.15012        2.17827       -0.07046
H          0.37045       -2.26381       -2.39526
H          2.91162        2.39721       -0.83440
H         -5.04046       -0.77899       -1.57822
H         -7.49331        2.20008        2.97989
H         -6.43421        5.34676       -1.14327
H         -4.69089        4.07364       -3.33903
H         -6.44211        7.29723       -2.19876
H         -5.87923        8.15655       -3.72355
H         -2.40963        7.04780       -7.06441
H         -4.68505        5.34720       -8.23017
H         -2.23637        6.78966       -9.50825
H         -2.00448        6.53924      -12.08059
H         -3.45688        5.90874      -14.06662
H         -5.44081        5.66557      -15.43738
H         -7.88030        6.02820      -16.06520
H        -10.16741        6.27281      -14.82962
H         -9.64864        6.62218      -11.25618
H        -11.59060        6.11345       -9.67156
H        -13.53730        4.76935      -10.74182
H        -13.18261        5.32106      -14.01650
H        -12.08697        3.21348      -13.30009
