92

C         12.71215      -12.68687       -7.27722
C         12.18743      -12.88683       -6.06638
C         11.60255      -14.11964       -5.61144
C         10.95861      -13.99583       -4.44311
C         10.97681      -12.64372       -3.90620
S         12.08233      -11.64073       -4.85204
C         10.14522      -12.16923       -2.95973
C          9.01760      -12.88695       -2.39537
C          8.01176      -12.06563       -2.05508
C          8.32840      -10.66249       -2.26690
S         10.05703      -10.49489       -2.43868
C          7.39557       -9.69510       -2.32952
C          7.50952       -8.21928       -2.45869
C          6.53659       -7.35939       -1.91437
C          6.73876       -5.93822       -1.79363
N          5.72606       -5.15663       -1.35780
C          4.52552       -5.72265       -1.08074
C          4.34548       -7.07919       -1.15638
N          5.35612       -7.90305       -1.53605
C          3.08307       -7.70987       -0.91419
N          2.04880       -8.20346       -0.73036
C          3.46528       -4.80808       -0.78298
N          2.59336       -4.07468       -0.56374
C          7.95024       -5.31498       -2.14771
C          8.82481       -6.09948       -2.95009
C          8.54983       -7.56651       -3.16949
N          9.34748       -8.09093       -4.11291
S         10.46517       -6.94896       -4.51934
N          9.95782       -5.70455       -3.55632
C          8.32978       -3.96779       -1.71555
S          7.94720       -3.34226       -0.15706
C          8.98722       -1.92755       -0.27223
C          9.41281       -1.92007       -1.57155
C          9.01135       -2.99832       -2.34886
O          9.30447       -2.96851       -3.67892
C          9.93430       -1.75358       -3.73159
N         10.16324       -1.27247       -5.05188
O          9.60490       -0.20844       -5.34760
O         10.90524       -1.94276       -5.77760
C         10.11744       -1.11605       -2.50374
C          9.12335       -1.01543        0.90061
C          9.39947        0.36276        0.79829
C          9.33126        1.20507       -0.39809
O          8.61131        0.97842       -1.35143
S         10.21975        2.68927       -0.20066
C         10.24297        2.47544        1.53126
O         10.77305        3.26244        2.29186
C          9.63659        1.18820        1.91849
C          9.33975        0.76822        3.21769
C          8.92146       -0.55914        3.30879
C          8.96390       -1.43860        2.23530
C          8.88381       -2.76526        2.84226
O          9.28094       -3.81925        2.38089
O          8.40970       -2.59514        4.09540
C          8.35370       -1.29411        4.43891
O          7.86501       -0.84933        5.45585
C          9.43614        1.67036        4.37844
C          9.82525        1.23249        5.58202
C          9.98985        2.04483        6.76128
C         11.09293        1.99254        7.52361
C         11.46576        2.68269        8.78118
C         10.64501        3.37276        9.61471
C         11.09616        3.98090       10.81982
N         11.45680        4.48038       11.80315
C          9.24722        3.54781        9.38172
N          8.11184        3.69276        9.19410
C         12.93126        2.41148        8.98861
C         13.38596        1.57983        7.96386
C         12.30085        1.21615        7.06210
O         12.42249        0.43758        6.13670
C         14.70127        1.15786        7.79730
C         15.64584        1.58805        8.74694
C         15.20816        2.39686        9.80561
C         13.85656        2.81771        9.94400
S         16.51835        2.78666       10.86345
C         17.62361        1.93173        9.91669
C         17.05666        1.33408        8.82397
Br        19.44782        1.81363       10.32299
H         12.73448      -13.47545       -8.02172
H         13.10693      -11.71929       -7.57077
H         11.65699      -15.03847       -6.17777
H         10.43797      -14.81338       -3.96669
H          8.95922      -13.96365       -2.34052
H          7.05549      -12.40363       -1.68129
H          6.36495      -10.02501       -2.18921
H         10.57854       -0.14776       -2.38195
H          9.25157        2.73170        4.22162
H         10.07966        0.18583        5.74214
H          9.12457        2.65397        6.99806
H         14.98116        0.52920        6.95578
H         13.60555        3.44692       10.78834
H         17.60754        0.74216        8.10240
