90

C          8.41956       -9.04791        6.07902
C          8.95513       -9.85818        7.08379
F          8.17485      -10.21130        8.11457
C         10.27914      -10.31666        7.02596
F         10.76379      -11.07510        8.01840
C         11.09323      -10.02627        5.93637
C         10.53924       -9.25183        4.93203
C          9.23701       -8.71495        5.00970
C          9.03117       -7.88427        3.80151
C          8.34502       -6.71948        3.74088
C          7.56427       -6.24566        4.83261
N          6.94585       -5.87284        5.74069
C          8.51676       -5.81324        2.65159
N          8.70516       -5.04786        1.80018
C         10.00859       -8.34740        2.81393
C         11.12530       -8.97221        3.59966
O         12.23402       -9.27481        3.21595
C          9.93550       -8.60015        1.49588
C          8.72452       -8.61013        0.72611
C          8.49144       -8.30089       -0.60204
C          7.18396       -8.72773       -1.07431
C          6.76404       -8.59333       -2.40803
C          7.74687       -8.00419       -3.23305
C          9.02640       -7.57715       -2.76439
C          9.45476       -7.70151       -1.42517
C          6.42539       -9.34429       -0.09343
S          7.29135       -9.30259        1.39696
C          5.12705       -9.94610       -0.14872
C          4.78729      -10.99921        0.62010
C          3.50947      -11.60122        0.46261
C          3.04702      -12.64540       -0.34573
C          1.59706      -12.55669       -0.45295
C          0.67377      -13.04324       -1.41716
C         -0.70339      -12.79404       -1.29760
C         -1.19711      -12.08429       -0.20765
C         -0.32392      -11.58325        0.75304
C          1.05913      -11.78352        0.58275
S          2.28500      -11.09943        1.55289
C         -1.59822      -13.24884       -2.31433
N         -2.32962      -13.60896       -3.14474
C          4.00172      -13.61353       -1.07704
C          3.81414      -14.92495       -1.49209
C          5.05238      -15.53198       -2.00634
C          5.13933      -16.86146       -2.45378
C          3.91863      -17.55742       -2.38096
C          2.72224      -16.98924       -1.86501
C          2.62643      -15.66913       -1.36877
C          6.15561      -14.69460       -1.95688
S          5.62397      -13.15346       -1.42710
C          7.53714      -14.93411       -2.28842
C          8.51703      -14.02443       -2.13708
C          9.89137      -14.20923       -2.55354
C         10.77325      -15.14084       -2.17336
C         12.07723      -15.23360       -2.91557
O         12.58103      -14.40975       -3.64784
C         12.60299      -16.57789       -2.62721
C         11.72623      -17.26965       -1.76578
C         11.96940      -18.61184       -1.50050
C         13.13775      -19.18711       -2.00483
C         14.03559      -18.44947       -2.78540
C         13.76735      -17.13268       -3.13176
F         15.16945      -19.01861       -3.21397
F         13.40448      -20.46738       -1.71284
C         10.72798      -16.28645       -1.26119
C         10.22496      -16.30655       -0.00108
C          9.69698      -15.13953        0.62659
N          9.33258      -14.18832        1.18263
C         10.37594      -17.43912        0.84988
N         10.52389      -18.38552        1.50646
H          7.38426       -8.73206        6.15500
H         12.10102      -10.41927        5.86891
H         10.80993       -9.01229        0.99164
H          5.80885       -8.91482       -2.80358
H          7.52298       -7.87214       -4.29311
H          9.71474       -7.13674       -3.48749
H         10.42987       -7.36071       -1.10162
H          4.42426       -9.56253       -0.88672
H          5.46611      -11.45150        1.33755
H          1.04379      -13.56610       -2.29748
H         -2.26193      -11.88067       -0.10945
H         -0.69873      -10.99570        1.58833
H          6.03408      -17.34297       -2.82570
H          3.89076      -18.59358       -2.72179
H          1.83052      -17.61808       -1.83873
H          1.70237      -15.32862       -0.92846
H          7.78743      -15.90489       -2.70515
H          8.31826      -13.01965       -1.76439
H         10.20541      -13.46619       -3.29077
H         11.30632      -19.23355       -0.90892
H         14.44355      -16.56402       -3.75830
