94

C          1.49370       -0.84757        0.84045
C          1.73095       -0.16938       -0.34064
C          1.55868        1.23019       -0.38553
N          1.80001        1.90474       -1.53947
C          2.20094        1.18817       -2.60927
C          2.36261       -0.17593       -2.54891
N          2.12931       -0.87341       -1.41803
C          1.14953        1.88670        0.78664
C          0.92472        1.19666        1.99061
C          1.09994       -0.20365        1.99851
N          0.90282       -0.94268        3.10765
C          0.53515       -0.27993        4.22344
C          0.36954        1.08512        4.23707
N          0.55881        1.83659        3.13235
C          0.98884        3.35222        0.76250
C         -0.16597        3.95888        0.44678
C         -0.32821        5.39294        0.44022
C          0.35606        6.24191        1.24339
C         -0.11354        7.59438        0.98514
C         -1.15694        7.46954       -0.01028
C         -1.29838        6.17763       -0.32529
F         -1.87036        8.48070       -0.52188
C          0.34469        8.70716        1.57050
C         -0.11509       10.06243        1.31843
C          0.60033       10.89367        2.10564
C          1.53000       10.10176        2.90382
C          1.38335        8.81570        2.57476
F          2.08723        7.79928        3.08789
C          0.41818       12.31593        2.15720
C          0.47358       13.09571        1.06671
C          0.29047       14.50242        1.14056
S          0.38066       15.44261       -0.29253
C          0.06892       16.89830        0.53677
O          0.01843       18.02606       -0.16755
C         -0.09548       16.70262        1.89360
C          0.03147       15.31661        2.22712
C         -0.35492       17.73451        2.85155
C         -0.53022       17.57065        4.18692
C         -0.75110       18.88367        4.78547
C         -0.69685       19.82906        3.69548
C         -0.46589       19.16331        2.55959
F         -0.84953       21.15409        3.79603
C         -0.96186       19.14734        6.08098
C         -1.17940       20.46204        6.66878
C         -1.39189       20.30413        7.99292
C         -1.26343       18.87935        8.30623
C         -1.02210       18.20349        7.17669
F         -0.84059       16.88063        7.08291
C         -1.61699       21.41017        8.89530
C         -2.33481       21.30557       10.02248
C         -2.56703       22.43697       10.95535
C         -3.66793       23.28160       10.75296
C         -3.88661       24.35382       11.64949
N         -4.93986       25.19301       11.46585
C         -5.76114       24.96060       10.42272
C         -5.55250       23.91489        9.56060
N         -4.51378       23.07099        9.71199
C         -2.99565       24.53721       12.72027
C         -1.89790       23.68525       12.92737
C         -1.68609       22.61268       12.03117
N         -0.64330       21.76110       12.20808
C          0.18135       21.98026       13.24935
C         -0.01413       23.02710       14.11296
N         -1.04370       23.88441       13.96564
C         -3.19329       25.68566       13.63639
C         -3.94510       25.64175       14.74493
H          1.63118       -1.92620        0.86186
H          2.38904        1.74895       -3.51727
H          2.68595       -0.75168       -3.40812
H          0.37854       -0.88435        5.10925
H          0.07967        1.61786        5.13523
H          1.88649        3.90998        1.01267
H         -1.04048        3.37439        0.17087
H          1.11190        5.97449        1.96455
H         -2.00082        5.77202       -1.03425
H         -0.89875       10.34369        0.63205
H          2.22868       10.50272        3.61927
H          0.24772       12.71737        3.15177
H          0.67439       12.64967        0.09434
H          0.17897       17.75406       -1.08699
H         -0.06382       14.92985        3.23389
H         -0.50891       16.64340        4.73729
H         -0.37656       19.61478        1.58556
H         -1.18680       21.39402        6.12514
H         -1.33816       18.45272        9.29372
H         -1.18291       22.36652        8.60705
H         -2.79929       20.36885       10.32167
H         -6.59284       25.64487       10.30424
H         -6.20973       23.72085        8.72129
H          1.00491       21.28557       13.36262
H          0.64849       23.21129       14.95009
H         -2.67522       26.59974       13.35985
H         -4.47541       24.74595       15.05478
H         -4.04203       26.52077       15.37290
