109

C          5.61487      -16.27540        6.35623
C          5.74504      -17.30845        5.42251
C          5.15903      -17.20523        4.15784
C          4.45126      -16.05949        3.79527
C          4.36812      -15.00412        4.69749
C          4.93192      -15.11678        5.99630
C          4.56477      -13.88982        6.78444
C          5.17970      -13.43408        7.89936
C          6.28601      -14.10520        8.50446
N          7.18735      -14.64341        8.99560
C          4.82263      -12.19486        8.50226
N          4.52072      -11.18829        8.99446
C          3.49966      -13.20795        5.97736
C          3.69581      -13.67544        4.58017
C          3.55668      -12.95973        3.43908
C          3.16425      -11.59064        3.43520
N          2.88348      -10.46498        3.40225
C          3.93633      -13.47434        2.16660
N          4.25476      -13.89312        1.13190
C          2.39924      -12.60982        6.48713
C          1.14667      -12.28053        5.79852
C          0.70388      -11.00420        5.74933
C         -0.56094      -10.63824        5.14042
C         -1.47540      -11.66963        4.62708
C         -1.21289      -12.97472        4.58655
S          0.26911      -13.66961        5.15841
C         -2.62667      -11.00395        4.17099
C         -2.47943       -9.64775        4.34052
C         -3.61149       -8.93666        3.89549
C         -4.57426       -9.80734        3.40294
S         -4.08492      -11.46299        3.49652
C         -1.17097       -9.41925        4.94272
C         -0.58873       -8.12412        5.27878
C         -1.16498       -6.91249        5.15972
C         -0.53558       -5.68017        5.54102
S          1.16924       -5.46695        5.46495
C          1.11393       -3.86150        6.06454
C         -0.19697       -3.45776        6.26945
C         -1.14495       -4.50353        5.97160
C         -2.62294       -4.27721        6.15678
C         -2.90211       -3.16275        7.18692
C         -4.35705       -2.93456        7.25293
N         -5.50401       -2.76969        7.29502
C         -2.13667       -1.87939        6.79977
C         -2.43664       -0.76930        7.72502
N         -2.65821        0.10205        8.45795
C         -0.61209       -2.11264        6.80501
C          2.33846       -3.14394        6.26573
C          2.84307       -3.05669        7.51565
C          4.07481       -2.35386        7.78458
C          4.84265       -1.69981        6.71145
C          4.49006       -1.67898        5.42745
S          3.04094       -2.42171        4.82593
C          5.97054       -1.11392        7.31752
C          5.94242       -1.35393        8.66855
C          7.04407       -0.80885        9.34930
C          7.87477       -0.15077        8.45167
S          7.29236       -0.22442        6.81798
C          4.75187       -2.12919        8.95157
C          4.37282       -2.55909       10.27877
C          4.12043       -1.68904       11.26813
C          3.79371       -2.06793       12.63251
C          3.09890       -1.30227       13.49813
C          3.16850       -1.40787       14.97994
C          3.04568       -2.52579       15.72951
C          2.87938       -3.81237       15.13084
N          2.75586       -4.85290       14.63739
C          2.99211       -2.49206       17.15325
N          2.94799       -2.46506       18.31278
C          3.23419        0.01729       15.45491
C          2.88201        0.87801       14.37306
C          2.94258        2.25785       14.51445
C          3.32795        2.78965       15.74532
C          3.67425        1.94977       16.80990
C          3.64439        0.55876       16.66779
C          2.52526        0.02963       13.19925
C          1.66195        0.32865       12.19935
C          1.19054        1.65005       11.96933
N          0.85549        2.74175       11.76391
C          1.10797       -0.68835       11.36094
N          0.63215       -1.51891       10.70267
H          6.03932      -16.43156        7.34196
H          6.28988      -18.21262        5.68860
H          5.24509      -18.03058        3.45332
H          3.96988      -16.03546        2.82346
H          2.30692      -12.46219        7.56344
H          1.30239      -10.20738        6.18069
H         -1.93933      -13.66558        4.16931
H         -3.76376       -7.86786        3.90893
H         -5.54262       -9.55729        2.99076
H          0.42505       -8.17926        5.66745
H         -2.17744       -6.82072        4.79314
H         -3.11252       -5.20399        6.48115
H         -3.06017       -4.01341        5.18271
H         -2.56165       -3.49967        8.17638
H         -2.44327       -1.57529        5.78819
H         -0.22552       -2.03481        7.83004
H         -0.12660       -1.31617        6.22535
H          2.33543       -3.52313        8.35581
H          5.11183       -1.17301        4.69582
H          7.24306       -0.87941       10.41052
H          8.79970        0.37013        8.65925
H          4.29310       -3.63140       10.43817
H          4.19802       -0.62262       11.05720
H          4.29610       -2.97522       12.96779
H          2.72214        2.94245       13.70271
H          3.37168        3.86986       15.87358
H          3.98770        2.38861       17.75565
H          3.96946       -0.04866       17.50518
