120

C          6.62215        0.60022        1.43657
C          6.12365        0.48248        0.14360
C          4.93545        1.23398        0.00318
C          4.62618        1.89538        1.16753
S          5.65279        1.61933        2.44446
C          3.48058        2.68691        0.95049
C          3.04426        2.49825       -0.33897
C          3.94201        1.56006       -1.01943
C          3.88276        1.12160       -2.29602
C          2.85590        1.54422       -3.18061
N          2.01447        1.89492       -3.90026
C          4.85737        0.23702       -2.82178
N          5.66458       -0.48156       -3.24780
C          1.90578        3.28567       -0.60256
C          1.55563        4.07553        0.50525
S          2.64316        3.82438        1.80989
C          0.42723        5.09192        0.45318
C          0.20476        5.66166       -0.78992
S         -1.11524        6.69882       -0.83076
C         -1.46522        6.39459        0.80841
C         -0.54476        5.56576        1.45684
C         -0.83041        5.32340        2.85186
C          0.19263        4.81244        3.86661
C          1.05018        5.93304        4.45019
C         -2.15173        5.66164        3.40518
C         -2.77068        4.54380        4.28054
C         -3.68958        4.79521        5.45413
C         -2.92255        6.68470        2.76129
C         -4.01095        7.56580        3.13348
C         -4.51207        8.31632        2.09063
S         -3.65395        8.04848        0.66388
C         -2.57107        6.97712        1.44919
C         -4.52097        7.82802        4.43333
C         -5.67038        7.29971        4.86638
C         -6.15552        7.57889        6.16178
C         -6.25702        8.79034        6.84711
C         -6.83182        8.59193        8.11288
C         -7.03237        7.25676        8.36923
S         -6.73500        6.24071        7.10350
C         -7.56809        7.10662        9.65518
C         -7.79618        8.35237       10.17291
C         -7.28436        9.38037        9.26232
C         -7.16621       10.69882        9.46167
C         -7.58807       11.36700       10.65436
N         -7.89513       11.96097       11.59816
C         -6.56870       11.54530        8.48295
N         -6.07239       12.24244        7.69989
C         -8.61002        8.24413       11.31059
C         -8.55774        6.97790       11.88287
S         -7.97746        5.84682       10.64354
C         -9.01676        6.43382       13.25062
C         -9.63827        5.19657       13.16465
S         -9.85428        4.43321       14.63939
C         -9.07476        5.70180       15.47371
C         -8.79271        6.82768       14.68792
C         -8.31931        7.96074       15.47992
C         -8.52032        9.41622       15.11733
C         -8.86489        9.82699       13.74602
C         -7.85583        7.81426       16.88492
C         -7.14302        8.94092       17.66934
C         -6.56685       10.26221       17.14381
C         -8.14408        6.58582       17.58536
C         -7.95106        6.10968       18.97183
C         -8.46908        4.84253       19.15376
S         -9.17074        4.20411       17.76435
C         -8.78645        5.59688       16.84911
C         -7.33998        6.79813       20.08450
C         -7.12669        6.28120       21.30973
C         -6.51399        7.05800       22.32299
C         -7.12158        7.89066       23.25967
C         -6.15609        8.52055       24.06891
C         -4.88107        8.10233       23.75721
S         -4.79003        6.99471       22.52521
C         -3.96356        8.78428       24.58057
C         -4.65920        9.64236       25.40636
C         -6.09263        9.51592       25.13806
C         -7.11184       10.17070       25.71866
C         -6.89648       11.13366       26.73902
N         -6.71896       11.92294       27.56847
C         -8.46749        9.94281       25.33924
N         -9.56798        9.75983       25.02470
C         -3.78935       10.38971       26.22791
C         -2.46778       10.03987       25.97952
S         -2.31134        8.81836       24.76203
H          7.51495        0.14946        1.84728
H          6.62117       -0.10335       -0.61696
H          1.35885        3.30067       -1.53714
H          0.76791        5.52695       -1.70254
H          0.78098        4.01260        3.44118
H         -0.25604        4.32919        4.73185
H          1.87172        6.21022        3.78519
H          1.48863        5.60490        5.40095
H          0.46096        6.83320        4.65948
H         -2.00245        3.88935        4.68717
H         -3.30147        3.88864        3.57584
H         -3.37827        5.63640        6.07546
H         -3.70798        3.90119        6.09348
H         -4.71542        4.91390        5.10737
H         -5.31888        9.03797        2.11144
H         -3.96220        8.53883        5.04028
H         -6.19382        6.56733        4.25582
H         -5.95235        9.73563        6.41199
H         -9.18191        9.07775       11.65758
H         -9.94566        4.65910       12.27767
H         -7.57938        9.92266       15.23509
H         -9.28096        9.83006       15.79116
H         -7.98704        9.57754       13.14425
H         -8.99137       10.90878       13.68349
H         -9.79569        9.35416       13.43471
H         -6.25868        8.45454       18.09805
H         -7.82144        9.22423       18.48250
H         -5.88284       10.10881       16.30119
H         -5.99087       10.76393       17.92897
H         -7.35168       10.97836       16.87150
H         -8.48928        4.23719       20.04754
H         -7.01868        7.82123       19.93563
H         -7.40506        5.26974       21.58043
H         -8.19562        8.02819       23.30010
H         -4.06236       11.14541       26.95395
H         -1.57684       10.43996       26.44468
