146

C          6.30316        3.40552       -1.04225
C          6.40939        2.19276       -1.63380
C          7.58736        1.39586       -1.53280
N          8.54510        0.75110       -1.44518
C          5.37831        1.66266       -2.45449
N          4.52113        1.23584       -3.12207
C          7.35592        4.12691       -0.26662
C          7.01637        5.48774       -0.23856
C          7.71341        6.44204        0.48079
C          8.81609        6.02197        1.22764
C          9.21681        4.65525        1.19639
C          8.47298        3.71247        0.44802
C         10.33996        4.26830        1.94565
C         11.03301        5.19412        2.73039
C         10.61323        6.51990        2.78319
C          9.51454        6.93314        2.03136
C          5.76891        5.71926       -0.97600
O          5.37493        6.78543       -1.39699
C          5.17547        4.35429       -1.16086
C          3.85437        4.10452       -1.11478
C          2.90073        5.13199       -0.87467
C          2.18250        5.86970       -1.77566
C          1.31112        6.88928       -1.21612
C          0.35477        7.78167       -1.79549
C         -0.15690        7.55282       -3.20103
C         -1.34514        7.94550       -3.81774
C         -1.48926        7.52737       -5.17568
C         -0.42577        6.77304       -5.59557
S          0.69741        6.58059       -4.34661
C         -0.17180        6.14098       -6.91824
Cl        -2.86089        7.92269       -6.11360
C         -0.18447        8.83325       -0.99494
C          0.19014        9.01854        0.34694
C          1.10793        8.08977        0.93139
C          1.57718        6.99669        0.15865
S          2.43189        5.56862        0.69514
C          1.61434        8.26406        2.33978
C          2.83405        7.90751        2.91672
C          2.94645        8.23371        4.30725
C          1.82746        8.87639        4.77799
S          0.64076        8.97703        3.56866
C          1.52079        9.43409        6.12730
Cl         4.33732        7.84759        5.22818
C         -0.49989       10.17889        0.88813
C         -1.44873       10.77364        0.08334
S         -1.30648       10.07117       -1.45952
C         -2.38165       11.83505        0.40219
C         -2.81235       12.64605       -0.58060
C         -3.67394       13.77251       -0.35588
C         -4.23007       14.08112        0.96146
C         -3.96011       13.38046        2.06364
S         -2.89190       12.00379        2.08609
C         -5.04553       15.21796        0.79953
C         -5.01274       15.61758       -0.51502
C         -5.79973       16.74648       -0.77636
C         -6.41018       17.17653        0.39320
S         -6.01266       16.18334        1.76433
C         -4.14034       14.71421       -1.22892
C         -3.89725       14.80549       -2.65244
C         -2.75385       14.44715       -3.26124
C         -2.56300       14.50991       -4.66372
C         -1.80256       13.66534       -5.43898
C         -1.75258       13.97101       -6.85761
C         -1.05571       13.38572       -7.97741
C         -0.12404       12.18845       -7.83667
C          0.61536       11.46070       -8.77699
C          1.31710       10.32637       -8.27529
C          1.15764       10.21377       -6.92760
S          0.18211       11.44685       -6.31400
C          1.66052        9.19099       -5.99887
Cl         2.21853        9.26779       -9.27115
C         -1.28504       13.94500       -9.26853
C         -2.24506       14.93834       -9.50500
C         -2.82420       15.58176       -8.39007
C         -2.57304       15.09358       -7.09171
S         -3.16514       15.75988       -5.61024
C         -3.68735       16.78664       -8.59451
C         -4.82444       17.22171       -7.92290
C         -5.37667       18.43101       -8.43903
C         -4.68846       18.88507       -9.53858
S         -3.25445       17.98574       -9.76750
C         -4.99540       20.01638      -10.46034
Cl        -6.76413       19.15761       -7.74814
C         -2.49693       15.07339      -10.92932
C         -1.68578       14.30271      -11.72996
S         -0.42378       13.71653      -10.75086
C         -1.68392       14.16884      -13.15199
C         -1.35494       13.04180      -13.80936
C         -1.00696       12.86518      -15.23792
C         -1.61778       13.42544      -16.30718
C         -1.28298       13.09389      -17.63831
N         -1.00091       12.82227      -18.74836
C         -2.69198       14.34687      -16.15608
N         -3.55625       15.10936      -16.01795
C          0.04855       11.80644      -15.26627
C          0.06521       11.18217      -14.01170
C         -0.96787       11.75222      -13.14919
O         -1.43908       11.21721      -12.16898
C          0.98733       10.22645      -13.62772
C          1.95169        9.84736      -14.55929
C          1.94156       10.42149      -15.86396
C          0.98979       11.41095      -16.20505
C          2.90570        9.99617      -16.78885
C          3.87100        9.05055      -16.43345
C          3.89358        8.51932      -15.14682
C          2.93713        8.91358      -14.21368
H          7.37153        7.47309        0.49035
H          8.76951        2.66867        0.48880
H         10.68480        3.23581        1.93424
H         11.89648        4.87736        3.31048
H         11.13902        7.23460        3.41162
H          9.19831        7.97276        2.09237
H          3.46445        3.09171       -1.13907
H          2.34536        5.67515       -2.82143
H         -2.13066        8.50490       -3.33580
H         -0.90322        5.34516       -7.07739
H          0.82939        5.69852       -6.98282
H         -0.25768        6.87148       -7.72935
H          3.63666        7.41686        2.38056
H          2.00239        8.85821        6.92228
H          0.44236        9.41774        6.32459
H          1.85603       10.47473        6.19826
H         -0.37236       10.56121        1.88749
H         -2.49166       12.47078       -1.59565
H         -4.40921       13.66419        3.00914
H         -5.92582       17.22872       -1.73593
H         -7.07243       18.02163        0.51802
H         -4.72726       15.20374       -3.23152
H         -1.91371       14.05580       -2.69833
H         -1.30508       12.84649       -4.94468
H          0.66903       11.67047       -9.82893
H          1.88620        8.24996       -6.51008
H          0.86756        9.03142       -5.27551
H          2.53512        9.50650       -5.43056
H         -5.27094       16.70229       -7.08533
H         -5.93923       20.50825      -10.20604
H         -5.08753       19.65528      -11.49161
H         -4.20316       20.77013      -10.42712
H         -3.27451       15.69736      -11.35028
H         -1.89542       15.08657      -13.69195
H          0.96476        9.82221      -12.61948
H          1.03968       11.86407      -17.19047
H          2.91588       10.39747      -17.80024
H          4.61118        8.73189      -17.16311
H          4.65461        7.79444      -14.86859
H          2.97133        8.48854      -13.21210
