122

C         -1.60396       -2.63548       -0.56525
C         -1.59569       -1.18864       -1.10903
C         -0.67675       -0.71980       -2.06294
C         -0.64438        0.63087       -2.43094
C         -1.52850        1.54059       -1.85812
C         -2.47566        1.09670       -0.94333
C         -2.52177       -0.25370       -0.58818
C         -1.41878       -2.70557        0.97856
C         -1.95440       -3.76707        1.73695
C         -1.75494       -3.84624        3.12088
C         -1.01940       -2.86818        3.78181
C         -0.48558       -1.80762        3.06108
C         -0.68325       -1.72678        1.67967
C         -0.69451       -3.64571       -1.29852
C         -1.49428       -4.58170       -1.85678
C         -2.88735       -4.23512       -1.65437
C         -4.02066       -4.80929       -2.11191
C         -4.05775       -5.93012       -2.98355
N         -4.11346       -6.83917       -3.70492
C         -5.27992       -4.26756       -1.72846
N         -6.30843       -3.83377       -1.40948
O         -2.96161       -3.10711       -0.84019
C         -1.08831       -5.81923       -2.42675
N         -0.77714       -6.84900       -2.85913
C          0.75403       -3.72366       -1.29366
C          1.64669       -3.21119       -0.34583
C          2.97362       -3.61662       -0.57883
C          3.08432       -4.36486       -1.72566
S          1.68184       -4.45802       -2.60283
C          4.40863       -4.84712       -1.82706
C          5.12552       -4.37296       -0.75255
C          4.26455       -3.56278        0.09953
C          4.57061       -2.94802        1.25800
C          5.84244       -3.06884        1.88178
N          6.85103       -3.13055        2.45247
C          3.63350       -2.12646        1.94123
N          2.89456       -1.42676        2.49872
C          6.46895       -4.77266       -0.80671
C          6.70606       -5.67927       -1.84579
S          5.26978       -5.84767       -2.83945
C          7.90157       -6.38222       -2.21698
C          8.87359       -6.75850       -1.36575
C         10.15576       -7.30272       -1.77051
C         11.08196       -7.27482       -0.79514
C         10.58724       -6.70942        0.44841
S          8.83128       -6.61942        0.37252
C         11.30404       -6.20817        1.47304
C         12.74533       -6.15580        1.60827
C         13.16898       -5.36107        2.60662
C         12.09654       -4.71549        3.34614
S         10.56153       -5.35639        2.81929
C         12.27894       -3.73015        4.24860
C         11.23462       -3.02641        4.94425
C          9.96577       -3.44712        5.34935
C          9.20681       -2.39962        5.90029
C          9.93181       -1.23609        6.02133
S         11.48901       -1.35463        5.43809
C          9.09836       -0.24390        6.60459
C          7.85511       -0.79423        6.83726
C          7.85773       -2.19871        6.41354
C          6.85604       -3.09891        6.46898
C          5.61945       -2.78866        7.09451
N          4.61963       -2.53383        7.62579
C          6.97095       -4.41235        5.92902
N          7.02252       -5.49098        5.50348
C          6.94046        0.16181        7.34078
C          7.52462        1.42562        7.48583
S          9.21774        1.36471        7.02968
C          6.92807        2.66599        7.91704
C          6.84620        3.02138        9.21676
C          6.23861        4.33763        9.32078
C          5.64455        4.98212       10.34494
C          5.42225        4.38527       11.61414
N          5.19930        3.89113       12.63922
C          5.11936        6.29832       10.14683
N          4.69768        7.37413        9.99478
O          6.26096        4.91914        8.05781
C          6.33755        3.81561        7.08758
C          4.85256        3.67558        6.67393
C          4.20012        4.77835        6.07741
C          2.82315        4.77228        5.84201
C          2.06257        3.66368        6.19525
C          2.68093        2.55798        6.76947
C          4.05984        2.56313        7.00637
C          7.28329        4.28933        5.97444
C          8.32498        5.19983        6.25514
C          9.19945        5.63293        5.25764
C          9.05908        5.15728        3.95920
C          8.04213        4.25389        3.65782
C          7.16335        3.81897        4.65530
C          7.38172        2.31568       10.32341
N          7.83455        1.79302       11.25346
H          0.04617       -1.37785       -2.53498
H          0.08572        0.97697       -3.15921
H         -1.48004        2.59341       -2.12550
H         -3.17007        1.80218       -0.49272
H         -3.27136       -0.57017        0.13802
H         -2.54656       -4.54972        1.26950
H         -2.17693       -4.67412        3.68663
H         -0.86211       -2.93025        4.85593
H          0.10004       -1.04371        3.56880
H         -0.22494       -0.88711        1.15794
H          1.33237       -2.65669        0.52156
H          7.23687       -4.45582       -0.11394
H          8.04158       -6.57356       -3.27887
H         10.35456       -7.63798       -2.77921
H         12.10690       -7.58694       -0.93363
H         13.41444       -6.69105        0.94926
H         14.21319       -5.18995        2.83130
H         13.29622       -3.39077        4.43377
H          9.61125       -4.45824        5.20308
H          5.89927       -0.03365        7.56079
H          4.76127        5.67982        5.83009
H          2.34262        5.64527        5.40658
H          0.98710        3.66626        6.03606
H          2.08388        1.69509        7.05789
H          4.47447        1.69047        7.49674
H          8.46591        5.59409        7.25991
H          9.98812        6.34229        5.49713
H          9.74260        5.49115        3.18266
H          7.93241        3.88804        2.63993
H          6.37594        3.11870        4.38313
