100

C          4.30954       -7.20769        5.31984
C          5.51600       -6.76118        5.84421
C          5.61386       -5.44493        6.35167
C          6.87869       -5.01148        6.87704
N          7.90721       -4.67922        7.29404
C          4.50172       -4.57594        6.32546
C          4.58674       -3.22954        6.81638
N          4.63774       -2.13618        7.19732
C          3.29105       -5.01481        5.78326
C          3.23298       -6.30978        5.28782
C          2.08687       -6.90046        4.58965
O          0.98924       -6.38954        4.51525
C          2.57843       -8.20524        4.02816
C          3.87085       -8.49406        4.69590
C          4.45592       -9.70673        4.85238
C          5.65750       -9.88655        5.60250
N          6.63221      -10.00932        6.21006
C          3.89041      -10.91111        4.34336
N          3.42898      -11.88883        3.92028
C          1.96928       -8.85529        3.02453
C          0.77304       -8.42379        2.33682
C         -0.09845       -9.28709        1.79748
C         -1.28582       -8.84132        1.10733
C         -2.40601       -9.57620        1.03983
C         -3.58370       -9.14984        0.29924
C         -4.00908       -9.94762       -0.71523
C         -5.02096       -9.46734       -1.63840
C         -5.50427       -9.98104       -2.80810
C         -5.39660      -11.37980       -3.45016
C         -4.20152      -11.48094       -4.43691
N         -4.04797      -12.76567       -5.14688
C         -5.35767      -12.53767       -2.39668
N         -5.28458      -13.89973       -2.95128
C         -6.19267       -8.81877       -3.41747
C         -6.48878       -8.52193       -4.69515
C         -7.00046       -7.13302       -5.11241
C         -7.28511       -6.19383       -3.94220
C         -6.99094       -6.49571       -2.67042
C         -6.31655       -7.73685       -2.43984
C         -5.57402       -8.11422       -1.39448
C         -5.23809       -7.37540       -0.20506
C         -4.27590       -7.87642        0.58927
C         -8.20363       -7.27466       -6.01174
C         -9.42089       -6.77518       -5.74792
C        -10.53489       -6.93296       -6.63444
C        -11.74354       -6.41974       -6.37301
C        -12.84274       -6.59805       -7.28163
C        -13.49049       -5.55552       -7.82238
C        -14.58729       -5.70898       -8.74275
C        -15.75500       -6.31487       -8.49590
C        -16.57925       -6.71284       -9.67798
O        -16.54851       -6.27034      -10.80539
C        -17.38578       -7.85413       -9.21609
C        -18.17577       -8.66181      -10.01741
C        -18.79355       -9.76973       -9.42468
C        -18.58623      -10.03979       -8.05347
C        -17.77297       -9.19694       -7.26499
C        -17.18439       -8.07938       -7.84324
C        -16.32435       -6.98140       -7.31600
C        -16.29905       -6.54680       -6.03068
C        -15.72831       -5.29155       -5.65139
N        -15.31963       -4.26669       -5.30883
C        -16.95000       -7.24565       -4.97585
N        -17.48755       -7.84010       -4.13512
C        -19.19048      -11.18101       -7.42432
N        -19.66678      -12.09896       -6.90013
C        -19.61229      -10.61775      -10.24123
N        -20.27372      -11.28999      -10.91902
H          6.40667       -7.38540        5.85626
H          2.42039       -4.36386        5.72035
H          2.39130       -9.76581        2.60755
H          0.57514       -7.35416        2.28358
H          0.05124      -10.36143        1.88857
H         -1.22818       -7.87131        0.61338
H         -2.47144      -10.54273        1.53262
H         -3.47866      -10.86055       -0.94587
H         -6.32397      -11.53216       -4.02623
H         -3.27593      -11.27362       -3.89046
H         -4.31052      -10.72213       -5.21378
H         -4.09456      -13.52655       -4.45445
H         -3.10028      -12.82464       -5.52053
H         -6.23709      -12.47859       -1.74686
H         -4.47657      -12.44279       -1.76241
H         -5.88592      -13.97349       -3.77496
H         -5.63698      -14.56827       -2.26700
H         -6.26045       -9.22605       -5.48777
H         -6.20641       -6.64741       -5.69706
H         -7.76219       -5.24010       -4.15952
H         -7.21733       -5.81315       -1.85991
H         -5.72371       -6.43204        0.01616
H         -3.97834       -7.32960        1.47949
H         -8.03628       -7.81803       -6.94062
H         -9.60650       -6.22584       -4.82727
H        -10.34978       -7.48242       -7.55217
H        -11.93438       -5.84284       -5.46902
H        -13.10139       -7.62427       -7.53106
H        -13.16280       -4.53574       -7.63016
H        -14.37614       -5.33978       -9.74930
H        -18.28995       -8.43865      -11.07669
H        -17.61847       -9.45520       -6.21981
