134

C         -4.24171        5.73096        1.72421
C         -4.79256        6.88205        1.17566
F         -5.93082        7.37195        1.68359
C         -4.16911        7.54471        0.12769
C         -2.97440        7.04349       -0.39434
C         -2.37815        5.89727        0.15872
C         -3.02020        5.23953        1.24479
C         -2.40578        4.14008        1.87110
C         -1.12480        3.75234        1.49703
C         -0.55370        4.35836        0.37354
C         -1.15219        5.40705       -0.31403
C          0.74800        3.74600        0.07232
O          1.46551        4.04052       -0.86167
C          0.97778        2.68571        1.12937
C         -0.11265        2.83432        2.11811
C         -0.14021        2.49149        3.42792
C         -1.24832        2.74666        4.29149
N         -2.14900        2.91360        4.99850
C          0.94649        1.88376        4.12002
N          1.76648        1.37621        4.74690
C          1.97731        1.81835        0.87732
C          2.41178        0.59112        1.56052
C          3.46960        0.59262        2.47488
C          4.27533        1.69704        3.01136
O          4.05782        2.86012        2.71803
N          5.18335        1.15038        3.89762
C          5.00123       -0.20517        4.01641
O          5.62902       -1.03339        4.65016
C          3.91138       -0.56396        3.11310
C          3.36300       -1.80632        2.86851
C          2.33994       -1.83435        1.92819
C          1.87998       -0.67843        1.27751
C          0.86134       -1.00570        0.27117
O          0.34760       -0.19922       -0.48146
S          0.47662       -2.71525        0.26627
C          1.65820       -3.05243        1.50284
O          1.89131       -4.15728        1.96279
C          6.17855        1.83131        4.56976
C          6.68879        2.98758        4.13195
C          7.80481        3.72945        4.68689
C          7.56634        5.01593        5.05761
C          8.68740        5.92741        5.18727
C          8.71911        7.27873        5.35737
C          7.60981        8.22523        5.80409
C          7.61379        8.36923        7.35461
N          8.84975        8.90509        7.93417
C          7.61073        9.61390        5.12275
N          6.51689       10.51219        5.49289
C         10.05608        7.63028        4.86243
C         10.48018        8.72463        4.20931
C         11.72055        8.68611        3.34028
C         12.69606        7.57762        3.72995
C         12.28008        6.47800        4.38727
C         10.88729        6.43489        4.74677
C         10.04783        5.40741        4.90772
C         10.26956        3.99133        4.77660
C          9.18700        3.19667        4.67014
C         12.36866       10.03938        3.25118
C         11.83501       11.12512        2.65548
C         12.57332       12.38715        2.48041
C         11.91719       13.62685        2.58735
C         10.49444       14.00739        2.79207
O          9.60569       13.18356        2.92636
N         10.44182       15.38864        2.85062
C         11.70151       15.92687        2.73535
O         12.06475       17.08852        2.74073
C         12.62658       14.82271        2.54216
C         13.99288       14.89329        2.36147
C         14.64011       13.67777        2.19643
C         13.96532       12.45160        2.21650
C         14.91109       11.35537        1.89664
O         14.62608       10.21388        1.58831
S         16.57826       11.90397        1.91381
C         16.08222       13.56316        2.01598
O         16.83600       14.51941        1.96942
C          9.35509       16.21386        3.07376
C          8.04523       16.02302        2.86096
C          7.41162       14.93076        2.17648
C          6.47498       14.07911        2.61661
C          5.92604       13.13223        1.58155
O          6.30409       12.96017        0.44029
C          4.77872       12.46440        2.20263
C          3.95981       11.52563        1.58907
C          2.86981       11.02379        2.30795
C          2.61352       11.51388        3.61917
C          1.49935       11.02956        4.31961
C          0.66487       10.07995        3.73934
C          0.91689        9.58344        2.46821
C          2.01855       10.05339        1.75247
F         -0.39961        9.63602        4.42004
C          3.47482       12.46880        4.20280
C          4.59318       12.92314        3.51129
C          5.73690       13.82946        3.87195
C          6.09860       14.12933        5.14723
C          7.28225       14.82065        5.50621
N          8.22462       15.38392        5.89447
C          5.35296       13.69649        6.28809
N          4.74598       13.35873        7.21172
H         -4.75785        5.25551        2.55468
H         -4.61254        8.45282       -0.26890
H         -2.49692        7.57583       -1.21450
H         -2.94397        3.64998        2.67507
H         -0.64820        5.85736       -1.16541
H          2.57808        1.99868       -0.02059
H          3.72213       -2.70092        3.36929
H          6.57022        1.33802        5.45755
H          6.33735        3.40993        3.18984
H          6.56546        5.43228        5.03214
H          6.65068        7.75728        5.54246
H          7.41956        7.39296        7.81363
H          6.78551        9.01445        7.67191
H          9.63456        8.32228        7.64277
H          9.02794        9.83034        7.54524
H          7.58316        9.48360        4.03470
H          8.51779       10.16154        5.38827
H          5.61801       10.05000        5.37324
H          6.54007       11.30024        4.85400
H          9.86861        9.59936        4.07356
H         11.38711        8.42890        2.32283
H         13.72283        7.63918        3.37987
H         12.93587        5.64353        4.60413
H         11.27920        3.59962        4.73104
H          9.31991        2.12835        4.52292
H         13.38560       10.06421        3.62449
H         10.80060       11.10461        2.30832
H         14.52635       15.84093        2.34298
H          9.64022       17.18308        3.48998
H          7.38021       16.84664        3.12449
H          7.73576       14.84756        1.13475
H          4.17352       11.20106        0.57371
H          1.26553       11.37949        5.32204
H          0.25263        8.83835        2.04156
H          2.20623        9.65619        0.75647
H          3.23079       12.82614        5.19816
