104

C          5.14019       -4.67089       -1.77559
C          5.99682       -4.29794       -0.79315
C          6.85433       -3.16895       -0.93426
N          7.55429       -2.25950       -1.10595
C          6.27135       -5.18857        0.28852
N          6.50696       -5.97305        1.10994
C          5.26131       -4.19420       -3.16909
C          5.32593       -5.34243       -3.98169
C          5.52783       -5.28830       -5.34555
C          5.61750       -4.02095       -5.92468
C          5.48029       -2.85438       -5.13428
C          5.30930       -2.93764       -3.74238
Cl         5.49366       -1.27278       -5.83205
Cl         5.87421       -3.94964       -7.63132
C          5.01076       -6.54413       -3.17751
O          5.02273       -7.69697       -3.54832
C          4.53885       -5.98985       -1.85455
C          3.46552       -6.61366       -1.35233
C          2.32426       -6.20197       -0.57154
C          1.18380       -7.03133       -0.55624
C          0.88484       -8.35199       -1.12950
O         -0.15820       -8.58760       -1.74588
C          1.87521       -9.47621       -0.94610
S         -0.15849       -6.28939        0.21519
C          0.72794       -4.89379        0.54174
C          2.04447       -4.95121        0.10603
C          2.81751       -3.74995        0.35878
C          3.47161       -3.59297        1.54806
C          3.51075       -2.25229        2.13690
C          3.87806       -1.84555        3.38743
C          5.27061       -1.92416        4.01409
C          5.31331       -1.58510        5.53228
N          6.66784       -1.36404        6.05677
C          6.03532       -3.22631        3.67539
N          7.46117       -3.19153        4.00864
C          2.95975       -0.74142        3.65181
C          2.31128       -0.43409        4.78865
C          1.12505        0.52063        4.77564
C          1.02938        1.35534        3.50210
C          1.61656        0.96439        2.35205
C          2.39882       -0.24383        2.40177
C          2.68671       -1.19096        1.49646
C          2.36403       -1.31482        0.10678
C          2.46776       -2.54391       -0.44340
C          1.11692        1.35169        6.03114
C          0.16567        1.17527        6.96412
C          0.09598        1.81888        8.23820
C         -0.89726        2.72774        8.59138
C         -2.07812        3.24226        7.88830
O         -2.85923        4.06147        8.38318
C         -2.37551        2.74841        6.49336
S         -0.62242        3.32957       10.18628
C          0.70278        2.29330       10.43883
C          0.94953        1.48493        9.35089
C          1.97079        0.47422        9.42624
C          1.83806       -0.85509        9.25473
C          2.83308       -1.94711        9.45763
C          4.18523       -1.85777        9.40435
C          5.04093       -2.99482        9.50636
N          5.73378       -3.92072        9.58720
C          4.87308       -0.63273        9.15863
N          5.44383        0.34275        8.92650
C          2.05711       -3.22239        9.55758
C          0.73389       -2.96389        9.18497
C          0.51739       -1.53095        8.98604
O         -0.56573       -1.06341        8.70824
C         -0.25398       -3.93399        9.10092
C          0.08500       -5.23529        9.45576
C          1.38852       -5.52309        9.90103
C          2.37468       -4.51715        9.95269
Cl         1.84352       -7.10716       10.42405
Cl        -1.14947       -6.43660        9.35552
H          5.58305       -6.19883       -5.93465
H          5.20326       -2.03592       -3.14511
H          3.35518       -7.60569       -1.77911
H          2.38408       -9.39792        0.01694
H          2.59457       -9.49244       -1.76709
H          1.33551      -10.42894       -0.96777
H          0.23139       -4.06444        1.03197
H          3.60087       -4.43369        2.22729
H          5.82292       -1.10710        3.51934
H          4.83460       -2.38655        6.10424
H          4.76841       -0.65983        5.73724
H          6.63893       -1.18757        7.06116
H          7.03573       -0.49248        5.66407
H          5.98279       -3.42503        2.60323
H          5.57109       -4.07394        4.19049
H          7.54062       -2.82232        4.96868
H          7.92718       -2.48265        3.44320
H          2.50409       -0.97649        5.70640
H          0.22345       -0.11177        4.77803
H          0.40019        2.23960        3.51056
H          1.51480        1.51403        1.42429
H          2.06162       -0.44637       -0.46663
H          2.21700       -2.69776       -1.48886
H          1.92673        2.05998        6.18640
H         -0.62020        0.44452        6.77343
H         -2.51001        1.66451        6.48665
H         -1.58527        3.05807        5.80549
H         -3.31505        3.19046        6.14568
H          1.20603        2.30456       11.39668
H          2.92462        0.87556        9.75674
H         -1.26064       -3.66904        8.78806
H          3.35698       -4.78849       10.32774
