97

C         -3.13911        2.12600        0.97650
C         -2.70031        1.10597        0.19398
C         -1.41575        0.50051        0.33793
N         -0.37580       -0.00234        0.43690
C         -3.47045        0.52157       -0.85402
N         -4.06758        0.02456       -1.71483
C         -2.37010        2.76321        2.09916
C         -3.16014        3.75399        2.68115
C         -2.78408        4.52184        3.77974
C         -1.52087        4.27272        4.35261
C         -0.70389        3.29710        3.76969
C         -1.10477        2.54152        2.63590
S          0.79465        3.15425        4.61517
C          0.35117        4.33764        5.75782
C         -0.89195        4.86375        5.49876
C         -4.45279        3.86580        2.00590
O         -5.31480        4.66287        2.31525
C         -4.46098        2.81998        0.92577
C         -5.55317        2.58845        0.17535
C         -6.82558        3.29362        0.22176
C         -8.01811        2.75771       -0.09566
C         -9.27718        3.46079       -0.04092
C        -10.34059        2.68613       -0.30506
C        -10.00377        1.29576       -0.55960
S         -8.25416        1.09279       -0.55336
C        -10.86187        0.26920       -0.70767
C        -12.31128        0.33247       -0.69954
C        -12.90463       -0.86755       -0.60299
C        -11.96669       -1.96553       -0.51602
S        -10.34248       -1.41047       -0.83302
C        -12.29223       -3.22363       -0.17707
C        -11.30641       -4.23672        0.02246
S        -10.81227       -5.22417       -1.28967
C         -9.64523       -6.07682       -0.34243
C         -9.66430       -5.61690        0.96593
C        -10.61874       -4.57473        1.17469
C        -10.83073       -3.92259        2.43534
N        -11.00149       -3.41932        3.46493
C         -8.79707       -6.11467        1.99696
N         -8.10663       -6.54673        2.82116
C         -8.84925       -7.06235       -1.00042
C         -8.38273       -8.15180       -0.37072
C         -7.55473       -9.16645       -0.98940
C         -7.87963       -9.91882       -2.04992
C         -7.08043      -11.00951       -2.55309
C         -7.72673      -11.77092       -3.44891
C         -9.08997      -11.33558       -3.70191
S         -9.37325       -9.78066       -2.93597
C        -10.06555      -12.04691       -4.29658
C         -9.96263      -13.40701       -4.78440
C        -11.15313      -14.01319       -4.90762
C        -12.26628      -13.16202       -4.54173
S        -11.73941      -11.50717       -4.40028
C        -13.50114      -13.60964       -4.26223
C        -14.61748      -12.79934       -3.80890
C        -15.87020      -13.16233       -3.49453
C        -16.62985      -14.42321       -3.46887
C        -16.53396      -15.46855       -4.32476
C        -17.23654      -16.69301       -4.14370
N        -17.77075      -17.71130       -3.97884
C        -15.77174      -15.41272       -5.52723
N        -15.18224      -15.39551       -6.52715
C        -17.74725      -14.22439       -2.48588
C        -17.79125      -12.87128       -2.13635
C        -16.68157      -12.13693       -2.75415
O        -16.47112      -10.94737       -2.63727
C        -18.77405      -12.29747       -1.33616
C        -19.81953      -13.13181       -0.88651
C        -19.77832      -14.49337       -1.21255
C        -18.73492      -15.06510       -1.98606
S        -21.15026      -15.32864       -0.58020
C        -21.80963      -13.90360        0.07965
C        -20.99665      -12.81482       -0.12843
H         -3.45744        5.26890        4.19081
H         -0.40851        1.80831        2.25072
H          1.02306        4.59521        6.56511
H         -1.34635        5.63291        6.11190
H         -5.55358        1.78752       -0.55328
H         -6.80402        4.33188        0.54284
H         -9.34499        4.51058        0.21321
H        -11.35657        3.05348       -0.28124
H        -12.86104        1.26189       -0.74597
H        -13.97581       -1.00762       -0.55402
H        -13.32506       -3.48255        0.03828
H         -8.63747       -6.92137       -2.06006
H         -8.59518       -8.35471        0.67554
H         -6.63040       -9.37079       -0.45186
H         -6.07792      -11.20947       -2.20011
H         -7.29251      -12.65161       -3.89857
H         -9.02030      -13.90170       -4.96916
H        -11.27874      -15.04366       -5.20874
H        -13.64537      -14.68222       -4.30643
H        -14.36439      -11.75037       -3.63225
H        -18.75384      -11.23551       -1.10605
H        -18.77779      -16.12734       -2.19094
H        -22.76086      -13.93112        0.59358
H        -21.24332      -11.82040        0.22430
