96

C         -8.65923       -1.54335       -3.85381
C         -7.93542       -2.27163       -4.73671
C         -8.49344       -3.31907       -5.53167
N         -8.93257       -4.16742       -6.18842
C         -6.55501       -2.03548       -5.00858
N         -5.43658       -1.83708       -5.24935
C        -10.13887       -1.66301       -3.61518
C        -10.54599       -0.61396       -2.79189
C        -11.85867       -0.40312       -2.37710
C        -12.84157       -1.31972       -2.80443
C        -12.44727       -2.38713       -3.62317
C        -11.10192       -2.57548       -4.03832
S        -13.79640       -3.39247       -4.02239
C        -14.85747       -2.43742       -3.12186
C        -14.25017       -1.36599       -2.52428
Br       -16.68528       -2.81209       -2.95388
C         -9.40799        0.21127       -2.38251
O         -9.49449        1.14955       -1.61779
C         -8.18661       -0.39219       -3.02335
C         -6.94163        0.05527       -2.76875
C         -6.65515        1.22497       -1.99906
S         -6.74809        2.75374       -2.81041
C         -6.31799        3.65784       -1.41401
C         -6.05988        2.80633       -0.35789
C         -6.21147        1.39830       -0.69719
C         -5.91726        0.37202        0.22838
C         -6.00412       -1.01772       -0.07431
N         -6.06541       -2.14608       -0.33987
C         -5.46063        0.84468        1.48037
C         -5.32216        2.22916        1.79202
C         -5.63322        3.27080        0.89525
C         -6.20389        5.07659       -1.51785
C         -7.20988        5.92153       -1.24959
C         -7.07192        7.36157       -1.22647
C         -8.10485        7.98620       -0.64025
C         -9.11499        7.06881       -0.14129
S         -8.82302        5.45395       -0.78610
C        -10.01770        7.32508        0.82246
C        -10.16741        8.56791        1.55986
C        -10.70671        8.38968        2.77700
C        -11.01127        7.00175        3.05049
S        -10.99682        6.07032        1.57949
C        -11.15280        6.48088        4.27721
C        -11.22044        5.03828        4.56359
C        -10.07959        4.23944        4.74577
C        -10.17492        2.84091        5.07535
N         -9.03289        2.12512        5.20511
C         -7.83537        2.72531        4.99978
C         -7.75292        4.05829        4.69164
N         -8.86753        4.82500        4.59037
C         -6.50774        4.72307        4.44869
N         -5.48054        5.22682        4.24911
C         -6.68702        1.87794        5.13953
N         -5.74150        1.21127        5.24705
C        -11.41950        2.18099        5.25353
C        -12.59304        2.95076        4.98838
C        -12.48695        4.41048        4.63554
N        -13.67951        4.99052        4.41777
S        -14.82607        3.81187        4.57920
N        -13.87224        2.53492        5.01753
C        -11.54645        0.74524        5.60320
C        -10.66526        0.05003        6.37314
C        -11.00427       -1.34749        6.25110
C        -10.32534       -2.45030        6.62086
C        -10.86030       -3.71186        6.14106
C        -10.33918       -4.95466        6.14912
C        -11.23020       -5.86682        5.41204
C        -12.33440       -5.19084        5.02088
C        -12.13324       -3.81907        5.40964
C        -12.84519       -2.72078        5.10489
C        -12.23365       -1.45878        5.46349
C        -12.55627       -0.20911        5.09993
C        -10.95947       -7.23503        5.05105
C        -10.86910       -7.64307        3.77721
H        -12.10648        0.43615       -1.73239
H        -10.88131       -3.43396       -4.66020
H        -14.76977       -0.64357       -1.90610
H         -6.05831       -0.44085       -3.14915
H         -5.17835        0.12273        2.25069
H         -4.92200        2.49526        2.77125
H         -5.51342        4.31395        1.16361
H         -5.21933        5.46590       -1.75837
H         -6.19181        7.87026       -1.59457
H         -8.14253        9.05475       -0.48363
H         -9.80583        9.52162        1.20245
H        -10.82433        9.17488        3.51048
H        -11.09328        7.11764        5.15443
H         -9.78347        0.41188        6.87620
H         -9.38133       -2.41814        7.14867
H         -9.38254       -5.24912        6.55151
H        -13.15550       -5.56328        4.43116
H        -13.76148       -2.74851        4.53153
H        -13.39141        0.05904        4.47242
H        -10.78931       -7.93666        5.86239
H        -10.99866       -6.95390        2.94662
H        -10.64366       -8.67581        3.53453
