90

C         -4.55706        7.28497        4.20306
C         -5.82357        7.68855        3.90028
C         -6.18159        9.05201        3.66422
N         -6.48453       10.15186        3.44916
C         -6.90123        6.77376        3.75321
N         -7.77734        6.02567        3.65361
C         -3.40065        8.21702        4.43358
C         -2.23803        7.46288        4.55890
C         -0.96074        8.00439        4.69871
C         -0.84042        9.41055        4.75704
C         -2.01229       10.17866        4.73678
C         -3.29952        9.60028        4.57734
S         -1.65724       11.85894        4.93842
C          0.00455       11.56723        4.98507
C          0.32753       10.24366        4.84689
Br         1.27802       12.92129        5.21866
C         -2.54750        6.03075        4.58502
O         -1.76878        5.18460        4.97894
C         -4.01254        5.88664        4.22538
C         -4.56677        4.69410        3.89191
C         -3.76740        3.56792        3.47851
O         -2.55528        3.81232        2.86679
C         -1.99221        2.65661        2.49556
C         -2.85267        1.61325        2.72260
N         -2.54625        0.30179        2.22575
O         -1.38163        0.11413        1.83906
O         -3.44247       -0.54283        2.17683
C         -3.96987        2.16689        3.45725
N         -5.04635        1.50304        4.01086
C         -5.05674        0.21092        4.48439
S         -6.44469       -0.78980        4.38266
C         -5.58450       -2.23979        4.66904
C         -4.27904       -1.91557        5.03270
C         -4.07678       -0.48908        5.16929
C         -2.87095        0.09350        5.84336
C         -1.81286       -0.94404        6.22104
C         -1.79304       -2.14838        5.27323
C         -0.69049       -3.09562        5.68534
O         -0.82622       -4.01650        6.47551
O          0.50324       -2.80225        5.12172
C         -3.14842       -2.87785        5.29086
C         -6.15025       -3.58678        4.66572
O         -5.59114       -4.49357        5.55908
C         -6.15147       -5.70785        5.39319
C         -7.10371       -5.63820        4.41617
N         -7.90401       -6.75789        4.05059
O         -7.30545       -7.78734        3.72694
O         -9.13147       -6.60845        4.12980
C         -7.12580       -4.28999        3.92475
N         -7.92635       -3.92028        2.86375
C         -8.33291       -2.63706        2.54712
C         -9.41156       -1.96245        2.97448
C        -10.51680       -2.35190        3.85717
C        -11.20165       -3.51825        3.79889
C        -12.18879       -3.88901        4.75260
N        -12.97430       -4.18171        5.55677
C        -11.07510       -4.37747        2.66358
N        -11.04383       -4.99726        1.68463
C        -10.88734       -1.13179        4.63177
C        -10.19991       -0.04003        4.08386
C         -9.37932       -0.46897        2.93204
O         -8.76628        0.24933        2.17053
C        -10.27032        1.25447        4.59141
C        -11.13281        1.48423        5.68970
C        -11.88742        0.41001        6.18558
C        -11.77911       -0.90585        5.67139
S        -12.92445        0.91291        7.47209
C        -12.30454        2.48077        7.44101
C        -11.38557        2.68329        6.44523
Br       -12.82369        3.80348        8.66152
H         -0.08802        7.36008        4.76480
H         -4.15344       10.26619        4.58359
H          1.34414        9.86925        4.83410
H         -5.62261        4.57690        3.69303
H         -1.01286        2.73902        2.04340
H         -5.97231        1.86023        3.76937
H         -3.20253        0.60991        6.75410
H         -2.40029        0.85301        5.21953
H         -1.99886       -1.29125        7.24603
H         -0.83185       -0.45369        6.24464
H         -1.59618       -1.81223        4.24628
H          0.48981       -2.04923        4.50033
H         -3.31105       -3.38694        6.24735
H         -3.13754       -3.64632        4.50579
H         -5.78279       -6.49611        6.03778
H         -7.68382       -4.41467        1.99546
H         -7.58913       -2.13639        1.92483
H         -9.66874        2.05293        4.16568
H        -12.39446       -1.68237        6.10878
H        -10.89519        3.63234        6.26382
