84

C         -4.76748      -11.68164        0.79630
C         -5.21687      -10.47888        0.24470
C         -5.10318      -10.24240       -1.11939
C         -4.54152      -11.21020       -1.95078
C         -4.07900      -12.40927       -1.40516
C         -4.19088      -12.64465       -0.03307
O         -5.52650       -9.07942       -1.70398
C         -5.85656       -8.00762       -0.88555
C         -6.00998       -6.73216       -1.66897
C         -5.98733       -8.09244        0.45621
C         -5.80763       -9.43158        1.08700
O         -6.13572       -9.65473        2.24667
C         -6.30523       -6.98412        1.30250
C         -7.48653       -6.09186        1.18199
N         -7.55968       -5.09941        2.02127
C         -6.45369       -5.27652        2.79155
C         -5.69873       -6.43057        2.35433
C         -4.47482       -6.55903        3.21306
S         -3.20564       -7.62419        3.08670
C         -4.64875       -5.41826        4.17167
C         -5.84662       -4.69233        3.81404
N         -6.01059       -3.60630        4.61221
C         -4.97907       -3.67766        5.40533
C         -4.05341       -4.82690        5.20546
C         -2.83000       -5.10590        5.90036
C         -1.82156       -4.23414        6.06129
C         -0.49318       -4.56406        6.52933
C          0.43309       -3.67011        6.13649
C         -0.12134       -2.57823        5.35419
S         -1.87259       -2.57686        5.52851
C          0.51128       -1.77004        4.48270
C          1.90968       -1.81081        4.09865
C          2.16269       -1.16457        2.94489
C          0.98747       -0.57072        2.34300
S         -0.34479       -0.60856        3.46848
C          0.88241       -0.16274        1.06950
C         -0.33426        0.22946        0.41069
C         -1.35389        1.22051        0.85089
N         -2.44713        1.29707        0.14305
C         -2.25289        0.35326       -0.81332
C         -0.95216       -0.25907       -0.66654
C         -0.79125       -1.31159       -1.71786
S          0.55143       -2.21113       -2.09807
C         -2.14241       -1.30816       -2.35999
C         -2.93726       -0.24642       -1.78429
N         -4.17662       -0.22155       -2.33823
C         -4.13758       -1.21301       -3.18553
C         -2.87264       -1.98972       -3.23897
C         -2.63587       -3.17285       -4.00578
C         -2.43530       -4.39638       -3.46746
O         -2.16540       -5.53819       -4.20680
C         -1.99177       -5.42802       -5.55839
C         -1.58990       -6.57655       -6.24039
C         -1.39667       -6.53293       -7.62137
C         -1.61540       -5.34382       -8.31987
C         -2.02246       -4.19571       -7.63682
C         -2.20305       -4.24231       -6.24986
C         -2.60735       -3.04776       -5.49070
O         -2.89829       -2.00177       -6.05897
C         -2.50632       -4.70545       -1.99665
H         -4.85357      -11.86261        1.86558
H         -4.45416      -11.02911       -3.01882
H         -3.62851      -13.16061       -2.04973
H         -3.82634      -13.57763        0.39068
H         -5.48018       -6.79858       -2.62553
H         -5.59281       -5.87179       -1.13653
H         -7.06628       -6.54304       -1.88471
H         -8.23794       -6.28948        0.40310
H         -4.77009       -2.94071        6.19483
H         -2.68404       -6.14358        6.19320
H         -0.26898       -5.47377        7.06934
H          1.49100       -3.77792        6.33571
H          2.65589       -2.36482        4.64760
H          3.13343       -1.14804        2.46939
H          1.75103       -0.25389        0.42005
H         -1.15949        1.84443        1.73611
H         -4.98520       -1.51024       -3.82216
H         -1.41886       -7.50182       -5.69608
H         -1.07342       -7.42532       -8.15255
H         -1.46310       -5.31152       -9.39652
H         -2.18829       -3.26954       -8.18334
H         -3.08774       -3.97236       -1.43077
H         -1.49867       -4.76018       -1.57475
H         -2.98715       -5.67725       -1.83845
