108

C         -9.10390        1.18623       -0.71908
C        -10.39910        1.64080       -0.92443
F        -10.58731        2.88117       -1.39555
C        -11.48321        0.82656       -0.63133
F        -12.72968        1.27724       -0.83015
C        -11.29340       -0.46279       -0.13466
C         -9.99706       -0.95083        0.09728
C         -8.89043       -0.08987       -0.18827
C         -7.58822       -0.50989        0.08523
C         -7.39947       -1.76803        0.62681
C         -8.45770       -2.67175        0.75585
C         -9.76809       -2.26347        0.56521
C         -7.89240       -4.03291        1.00474
O         -8.50650       -5.01257        1.37084
C         -6.39168       -3.86991        0.85091
C         -6.19899       -2.43589        1.12488
C         -5.36863       -1.87360        2.03273
C         -5.56578       -0.52096        2.46726
N         -5.78567        0.56803        2.81038
C         -4.39221       -2.62012        2.73456
N         -3.59130       -3.23806        3.30987
C         -5.40740       -4.64493        0.36558
C         -5.44380       -5.93812       -0.24746
S         -4.02329       -6.92157       -0.04105
C         -4.53802       -8.08518       -1.16804
C         -5.78517       -7.81438       -1.68411
C         -6.47270       -8.67536       -2.70211
C         -6.29796       -6.57575       -1.14083
C         -7.51275       -6.01611       -1.62535
C         -8.72641       -6.43863       -1.25083
C         -9.92381       -5.90387       -1.84079
C        -10.18075       -4.59026       -1.85670
C        -11.32164       -3.99956       -2.46301
S        -11.12195       -2.38869       -3.05779
C        -12.67639       -2.35382       -3.72871
C        -13.34473       -3.54980       -3.57570
C        -14.65766       -3.84866       -4.21744
C        -12.60749       -4.45710       -2.72880
C        -13.12625       -5.73982       -2.34260
C        -12.96052       -6.36524       -1.16557
C        -13.42349       -7.72331       -0.99872
C        -14.24908       -8.07949       -0.00935
C        -14.75486       -9.40471        0.14182
S        -14.96557       -9.96455        1.76313
C        -15.59145      -11.45862        1.25728
C        -15.65958      -11.57958       -0.11369
C        -16.19043      -12.79003       -0.81219
C        -15.17875      -10.38212       -0.75778
C        -15.20329      -10.23750       -2.18777
C        -16.20793       -9.63194       -2.84161
C        -16.42636       -9.50418       -4.26852
C        -15.56298       -9.51296       -5.29661
C        -14.14296       -9.71430       -5.20394
C        -13.36434      -10.27522       -6.13709
C        -11.88719      -10.22693       -5.92544
O        -11.28155      -10.03841       -4.88637
C        -11.29806      -10.42109       -7.25228
C         -9.94916      -10.36708       -7.55314
C         -9.57344      -10.50802       -8.89037
C        -10.57944      -10.64056       -9.89867
C        -10.18481      -10.75910      -11.23878
C         -8.83365      -10.77603      -11.56958
C         -7.86242      -10.66437      -10.58425
C         -8.22256      -10.52154       -9.24943
F         -6.56349      -10.69784      -10.91039
F         -8.47763      -10.91449      -12.85330
C        -11.94384      -10.68056       -9.54721
C        -12.30586      -10.63256       -8.21055
C        -13.60108      -10.79630       -7.48697
C        -14.64889      -11.54625       -7.92428
C        -15.70440      -11.99240       -7.07220
N        -16.56789      -12.38588       -6.39636
C        -14.72883      -12.03501       -9.26020
N        -14.80108      -12.41305      -10.35261
H         -8.27569        1.84709       -0.96272
H        -12.16931       -1.08000        0.04981
H         -6.73895        0.14095       -0.11564
H        -10.58562       -2.96309        0.72021
H         -4.41228       -4.20163        0.33904
H         -3.89452       -8.91941       -1.41274
H         -5.77251       -9.37862       -3.16604
H         -6.90700       -8.07238       -3.50706
H         -7.27304       -9.25496       -2.23100
H         -7.42152       -5.26296       -2.40499
H         -8.84906       -7.21063       -0.49161
H        -10.58841       -6.64338       -2.27156
H         -9.43693       -3.92128       -1.44579
H        -13.00896       -1.47089       -4.25696
H        -14.93891       -3.06296       -4.92543
H        -15.44622       -3.94654       -3.46723
H        -14.58699       -4.78435       -4.78347
H        -13.72551       -6.25155       -3.09213
H        -12.41200       -5.91534       -0.33925
H        -13.06909       -8.44071       -1.73518
H        -14.54669       -7.33663        0.72801
H        -15.89599      -12.18513        1.99694
H        -16.70142      -13.45471       -0.10784
H        -15.37246      -13.34931       -1.27693
H        -16.91293      -12.51359       -1.58671
H        -14.39084      -10.72405       -2.71900
H        -17.02912       -9.23123       -2.24813
H        -17.48096       -9.38345       -4.52754
H        -15.97838       -9.36449       -6.28882
H        -13.66827       -9.33728       -4.29968
H         -9.22028      -10.22728       -6.75818
H        -10.91600      -10.86010      -12.03684
H         -7.43710      -10.43769       -8.50307
H        -12.68738      -10.76353      -10.33484
