109

C          2.03772       -6.36009        3.20283
C          3.19885       -5.79764        3.72252
C          3.18742       -4.45328        4.16266
C          4.40396       -3.89651        4.68902
N          5.39628       -3.46519        5.10652
C          2.01205       -3.67553        4.06911
C          1.98865       -2.29615        4.46756
N          1.95344       -1.17877        4.77372
C          0.84323       -4.23766        3.54439
C          0.88956       -5.55768        3.12082
C         -0.20201       -6.27850        2.44930
O         -1.35371       -5.90812        2.40156
C          0.42513       -7.52554        1.89956
C          1.71419       -7.69489        2.61440
C          2.37147       -8.85895        2.84440
C          3.54168       -8.92919        3.65761
N          4.48601       -8.96722        4.32625
C          1.89872      -10.11248        2.35231
N          1.50798      -11.12357        1.94142
C         -0.03697       -8.18535        0.82505
C         -1.24193       -7.86387        0.14137
C         -2.50216       -8.37327        0.35285
C         -3.46344       -8.00624       -0.65964
C         -2.90594       -7.12319       -1.58999
S         -1.24266       -6.80977       -1.20113
C         -3.67933       -6.62865       -2.66163
S         -2.97042       -5.44737       -3.80692
C         -2.98660       -6.42494       -5.33757
C         -5.01396       -7.05112       -2.86301
C         -5.53424       -7.99234       -1.97724
C         -4.79759       -8.41109       -0.85964
S         -5.55526       -9.46902        0.36781
C         -5.01900      -11.07700       -0.26041
S         -7.08227       -8.53346       -2.50241
C         -7.18513       -7.41776       -3.79260
C         -6.01833       -6.67552       -3.83495
C         -8.36384       -7.37731       -4.69990
C         -8.27413       -7.05426       -6.07185
C         -9.43144       -7.01124       -6.93638
N         -9.24212       -6.62843       -8.21900
C         -8.01614       -6.33062       -8.67924
C         -6.92650       -6.41596       -7.86805
N         -7.04559       -6.77680       -6.57695
C        -10.75239       -7.34882       -6.50581
C        -10.87198       -7.65640       -5.11635
C         -9.67118       -7.64797       -4.20251
N        -10.00969       -7.90200       -2.92533
S        -11.62052       -8.20952       -2.86733
N        -11.99636       -7.98004       -4.45104
C        -11.97815       -7.41165       -7.37983
C        -13.30598       -7.69791       -7.08134
C        -14.21672       -7.72245       -8.21107
C        -13.52478       -7.46423       -9.39021
S        -11.88211       -7.12797       -9.06713
C        -14.16531       -7.52314      -10.63523
S        -13.23805       -7.22863      -12.14222
C        -14.03616       -5.70434      -12.71622
C        -15.51660       -7.89587      -10.73933
C        -16.24392       -8.06541       -9.56126
C        -15.60266       -7.98692       -8.31025
S        -16.50254       -8.40555       -6.82228
C        -16.99030       -6.75287       -6.26560
S        -17.90754       -8.37908       -9.92656
C        -17.63418       -8.51237      -11.61335
C        -16.31013       -8.24748      -11.88548
C        -18.69125       -8.95157      -12.46380
C        -18.74471       -8.78661      -13.79410
C        -19.62122       -9.74048      -14.55079
O        -20.57360      -10.37243      -14.14904
C        -19.01689       -9.84261      -15.89198
C        -19.36266      -10.75584      -16.87605
C        -18.59847      -10.77653      -18.04917
C        -17.50079       -9.89833      -18.19437
C        -17.17581       -8.97867      -17.17264
C        -17.95350       -8.93315      -16.02241
C        -17.92478       -8.08979      -14.79431
C        -17.48169       -6.81054      -14.72712
C        -17.78203       -5.95673      -13.62368
N        -18.00655       -5.23823      -12.74137
C        -16.74269       -6.19948      -15.77929
N        -16.11669       -5.72800      -16.63451
C        -16.68320       -9.92220      -19.37581
N        -16.00843       -9.92788      -20.31944
C        -18.94401      -11.71294      -19.07751
N        -19.23968      -12.48060      -19.89720
H          4.13287       -6.35253        3.77798
H         -0.07287       -3.65985        3.43246
H          0.52191       -9.00541        0.38474
H         -2.72157       -9.05414        1.16718
H         -3.99164       -6.47568       -5.76211
H         -2.61665       -7.43825       -5.16281
H         -2.34283       -5.93931       -6.07596
H         -5.62471      -11.85798        0.20653
H         -3.97073      -11.24883       -0.00345
H         -5.14276      -11.14287       -1.34429
H         -5.85729       -5.90240       -4.57642
H         -7.95350       -6.02822       -9.71749
H         -5.92851       -6.19168       -8.22352
H        -13.65918       -7.92226       -6.08382
H        -14.23745       -5.01132      -11.89559
H        -14.97225       -5.95114      -13.21713
H        -13.39040       -5.20966      -13.44682
H        -16.16964       -6.28516       -5.71556
H        -17.84665       -6.84834       -5.59108
H        -17.28140       -6.11302       -7.10242
H        -15.87708       -8.33566      -12.87232
H        -19.44677       -9.58382      -11.99198
H        -20.19239      -11.44309      -16.71996
H        -16.30720       -8.33662      -17.30551
