85

C          1.84703       -3.82440        0.04102
C          3.20518       -3.88258        0.33508
C          3.63002       -4.40978        1.58021
C          5.03897       -4.46286        1.85603
N          6.17843       -4.50307        2.05809
C          2.69140       -4.87747        2.52192
C          3.09269       -5.45725        3.77746
N          3.39848       -5.94035        4.77815
C          1.32652       -4.81885        2.22751
C          0.94426       -4.30117        0.99947
C         -0.43113       -4.22743        0.48771
O         -1.42861       -4.25972        1.17419
C         -0.29691       -3.98238       -0.98999
C          1.05795       -3.39049       -1.15389
C          1.44629       -2.48320       -2.08303
C          2.72895       -1.87015       -2.05380
N          3.78148       -1.38283       -2.00454
C          0.56726       -2.00963       -3.10103
N         -0.14326       -1.62714       -3.93245
C         -1.14004       -4.40739       -1.95184
C         -2.32277       -5.19875       -1.76710
C         -3.49409       -5.19950       -2.51313
O         -3.59733       -4.39663       -3.60638
C         -4.93146       -4.03367       -3.94303
C         -4.47435       -6.11502       -2.01110
C         -4.03172       -6.83694       -0.91491
S         -2.36414       -6.52075       -0.67068
C         -4.72090       -7.85359       -0.08445
C         -4.51412       -8.03629        1.30076
C         -5.11793       -9.11140        2.05346
N         -4.73830       -9.26466        3.35220
C         -3.85464       -8.39627        3.92117
C         -3.33857       -7.35130        3.21106
N         -3.68161       -7.16854        1.91930
C         -2.35717       -6.44904        3.74400
N         -1.54023       -5.77329        4.21491
C         -3.48103       -8.64631        5.28137
N         -3.13716       -8.80523        6.37957
C         -6.07192      -10.00623        1.47018
C         -6.35301       -9.80077        0.08261
C         -5.63101       -8.74303       -0.71062
N         -5.93461       -8.78057       -2.02143
S         -7.05913       -9.96242       -2.23949
N         -7.25455      -10.44406       -0.67913
C         -6.74061      -11.13261        2.19794
C         -7.18688      -12.38453        1.77999
O         -7.10371      -12.81363        0.49636
C         -8.30522      -13.45675        0.05613
C         -7.63104      -13.21786        2.84729
C         -7.67355      -12.56997        4.06092
S         -7.13933      -10.95217        3.87852
C         -8.00847      -13.06433        5.35269
C         -8.96772      -13.96304        5.62441
C         -8.83553      -14.67245        6.93931
O         -8.15978      -14.36623        7.89829
C         -9.64849      -15.89136        6.82464
C         -9.78138      -16.86669        7.80541
C        -10.65817      -17.92953        7.56295
C        -11.36623      -17.98743        6.34598
C        -11.17767      -16.99729        5.35439
C        -10.31314      -15.93276        5.58891
C        -10.00349      -14.66709        4.84655
C        -10.72147      -14.18780        3.80053
C        -10.75310      -12.80522        3.45639
N        -10.85172      -11.68275        3.17763
C        -11.53096      -15.02256        2.97986
N        -12.13365      -15.73379        2.29018
C        -12.33895      -19.01584        6.09419
N        -13.14867      -19.81415        5.86997
C        -10.83087      -18.92995        8.57816
N        -10.96003      -19.73176        9.40452
H          3.96324       -3.55342       -0.37363
H          0.58016       -5.18682        2.92358
H         -0.91794       -4.20612       -2.99620
H         -4.88592       -3.29663       -4.75068
H         -5.43133       -3.56597       -3.08836
H         -5.50724       -4.89010       -4.31098
H         -5.45737       -6.25055       -2.44455
H         -8.22999      -14.53482        0.23068
H         -8.41652      -13.29084       -1.01958
H         -9.20720      -13.06304        0.54374
H         -7.89720      -14.25782        2.71382
H         -7.34228      -12.74963        6.15965
H         -9.23162      -16.78060        8.74130
H        -11.75613      -17.08905        4.43974
