80

C         -8.73280       -6.77932       -2.91410
O         -7.89269       -5.77069       -3.30959
C         -6.55961       -5.99088       -3.31466
C         -5.68776       -5.02463       -3.72611
F         -6.05948       -3.83706       -4.13008
S         -4.08043       -5.52347       -3.66855
C         -8.39423       -7.99902       -2.48021
S         -6.77907       -8.58223       -2.30835
C         -5.89005       -7.18251       -2.91624
C         -4.50368       -7.09390       -3.03483
C         -3.47085       -8.04506       -2.75708
C         -2.22828       -7.68236       -2.35193
C         -1.42966       -8.89098       -2.17687
C         -2.31162       -9.99550       -2.48125
C         -3.50636       -9.50874       -2.83021
F         -1.97998      -11.29211       -2.44034
C         -0.13871       -8.94160       -1.82444
C          0.66848      -10.14171       -1.66127
C          1.91227       -9.76354       -1.29231
C          1.95675       -8.30271       -1.25348
C          0.74396       -7.82793       -1.54954
F          0.41144       -6.53286       -1.61120
C          2.98272      -10.70277       -1.08557
C          4.05203      -10.46824       -0.30986
C          5.07686      -11.43862       -0.15221
S          5.98039      -11.52089        1.32463
C          6.93506      -12.85001        0.79784
C          6.59522      -13.21482       -0.47449
C          5.57860      -12.40213       -0.96945
C          5.31365      -12.77372       -2.31229
C          6.08856      -13.85557       -2.76295
C          6.05420      -14.47420       -4.07925
O          6.72587      -15.42744       -4.45789
O          5.13877      -13.82824       -4.86276
C          5.02612      -14.34898       -6.18677
S          7.21867      -14.50224       -1.57479
C          7.93409      -13.44472        1.58711
C          7.65261      -14.45226        2.44242
C          8.89508      -14.81478        3.11787
C          9.91770      -13.94221        2.57258
C          9.35550      -13.12891        1.67138
F         11.21045      -13.94361        2.92062
C          9.03526      -15.75879        4.05645
C         10.26569      -16.11993        4.74121
C          9.99324      -17.12237        5.60687
C          8.55912      -17.40800        5.53203
C          8.00749      -16.61230        4.61096
F          6.71217      -16.59238        4.27244
C         10.95193      -17.70235        6.51716
C         12.26792      -17.79207        6.26204
C         13.28178      -18.32515        7.15037
O         14.51027      -17.71809        6.93846
C         15.57958      -18.09390        7.67091
C         16.80830      -17.50707        7.51957
F         17.05607      -16.54588        6.66701
S         17.98127      -18.15794        8.56027
C         13.04575      -19.32807        8.01969
S         14.19217      -20.04462        9.09819
C         15.59758      -19.10232        8.66258
C         16.84090      -19.25128        9.23528
H         -9.76156       -6.45244       -2.99965
H         -9.18589       -8.68913       -2.20450
H         -1.86231       -6.68205       -2.18060
H         -4.35472      -10.10154       -3.12756
H          0.32147      -11.15379       -1.80314
H          2.83036       -7.71142       -1.03500
H          2.85740      -11.65943       -1.58727
H          4.13540       -9.53834        0.24708
H          4.59554      -12.28016       -2.95627
H          4.39225      -13.67018       -6.76423
H          4.55030      -15.33368       -6.16182
H          6.00502      -14.40047       -6.67343
H          6.68903      -14.90774        2.60894
H          9.85524      -12.36541        1.09965
H         11.22192      -15.64310        4.59224
H          8.03800      -18.14410        6.12167
H         10.53796      -18.06794        7.45412
H         12.66006      -17.41763        5.31644
H         12.05071      -19.75604        8.07824
H         17.14060      -19.94149       10.01202
