136

C          2.96249       -2.06739        3.71574
C          1.60387       -1.95056        3.50977
C          1.07524       -0.75592        2.96864
N         -0.26748       -0.65082        2.77874
C         -1.03680       -1.70791        3.12146
C         -0.49956       -2.85972        3.64583
N          0.82550       -2.99701        3.84606
C          1.96571        0.29462        2.65550
C          3.35892        0.15043        2.84775
C          3.84433       -1.05297        3.40323
N          5.15357       -1.25657        3.65128
C          5.99727       -0.25155        3.34091
C          5.55182        0.91994        2.78306
N          4.24584        1.12840        2.52399
C          1.39404        1.54594        2.07808
C          1.83240        2.78214        2.36586
C          1.26145        3.98375        1.76258
C          1.80954        4.43594        0.54943
C          1.32666        5.59192       -0.08776
C          0.28843        6.33155        0.47620
C         -0.24147        5.89395        1.67990
C          0.22638        4.72965        2.31660
N         -0.51931        4.53904        3.49375
C         -0.39011        3.45619        4.42756
C         -1.55744        5.46171        3.58252
O         -2.50851        5.40942        4.34441
C         -1.28837        6.56073        2.54038
C         -0.83111        7.87965        3.20250
C          0.66502        7.86298        3.62286
O          1.62087        7.88342        2.88248
N          0.70066        7.85639        5.01756
C          1.91506        7.85345        5.79201
C         -0.56665        8.07500        5.55380
C         -0.91766        8.18921        6.88119
C         -2.24012        8.50211        7.20827
C         -3.18725        8.61401        6.15750
C         -2.82692        8.44684        4.81262
C         -1.50356        8.18234        4.52237
C         -2.64939        8.67431        8.60389
O         -3.94720        8.34348        8.83880
C         -4.22667        8.48012       10.17287
C         -3.05169        8.89947       10.79703
C         -2.05459        9.11553        9.78081
C         -0.71628        9.73277        9.93387
F         -0.04030        9.91339        8.77051
F         -0.78877       10.96472       10.50340
F          0.10241        8.98291       10.71963
O         -3.05162        9.15665       12.13123
C         -1.83335        8.90522       12.81866
C         -5.51334        8.20361       10.72564
C         -6.62276        8.33914        9.98044
C         -7.95939        8.04643       10.50703
C         -8.43759        6.72989       10.36152
C         -9.68873        6.34486       10.87091
C        -10.49562        7.26919       11.52007
C        -10.05248        8.57842       11.62123
C         -8.78565        8.96439       11.15379
N         -8.58619       10.30955       11.50681
C         -7.44676       11.11308       11.15364
C         -9.63223       10.77829       12.31111
O         -9.66694       11.83154       12.93348
C        -10.78491        9.76238       12.21350
C        -11.95556       10.32699       11.35796
C        -12.73426        9.20626       10.62582
O        -13.38843        8.32274       11.16400
N        -12.51718        9.36912        9.25349
C        -12.94831        8.45484        8.22754
C        -11.81927       10.54971        8.99355
C        -11.42194       11.07434        7.77342
C        -10.72118       12.30054        7.71999
C        -10.52210       12.96246        8.95832
C        -10.94046       12.43171       10.18054
C        -11.54209       11.19150       10.18813
C        -10.20006       12.88724        6.41947
C        -10.92210       12.71788        5.21261
C        -10.44142       13.28889        4.00538
N        -11.13521       13.12866        2.84425
C        -12.27412       12.41444        2.86528
C        -12.73712       11.84929        4.02244
N        -12.08226       12.01229        5.18542
C         -9.24558       14.02400        4.02083
C         -8.49255       14.15756        5.19632
C         -8.97150       13.60052        6.40387
N         -8.22320       13.75872        7.53088
C         -7.07060       14.45410        7.48018
C         -6.60865       14.96919        6.30675
N         -7.30248       14.81295        5.17176
C         -8.75145       14.60006        2.72863
C         -8.06794       15.74571        2.59183
H          3.35284       -2.99009        4.13904
H         -2.10285       -1.59693        2.96247
H         -1.11643       -3.70621        3.92456
H          7.04588       -0.41866        3.55899
H          6.22283        1.73223        2.53230
H          0.54835        1.41034        1.40541
H          2.65844        2.96480        3.04754
H          2.63604        3.89297        0.09250
H          1.78531        5.92308       -1.01691
H         -0.05826        7.24301        0.00040
H          0.65695        3.30404        4.69780
H         -0.83165        2.55095        4.00490
H         -0.92990        3.70308        5.34862
H         -2.21173        6.70018        1.96551
H         -0.95607        8.72872        2.52003
H          2.78338        7.69535        5.14632
H          1.87207        7.04808        6.53087
H          2.02436        8.81783        6.29775
H         -0.16896        8.01876        7.64819
H         -4.23296        8.80836        6.39185
H         -3.58305        8.48554        4.03397
H         -2.02093        9.03960       13.88938
H         -1.06637        9.63408       12.55249
H         -1.48177        7.87870       12.66758
H         -5.56917        7.89079       11.76334
H         -6.59138        8.66785        8.94562
H         -7.82988        5.98016        9.85800
H        -10.03041        5.31884       10.75337
H        -11.46020        6.96502       11.92051
H         -7.17204       10.95069       10.10794
H         -6.61252       10.87924       11.81838
H         -7.69332       12.17351       11.26291
H        -11.11590        9.50999       13.22717
H        -12.66361       10.88962       11.97758
H        -13.44665        7.58712        8.66762
H        -12.07328        8.10906        7.66748
H        -13.64114        8.96152        7.54910
H        -11.65384       10.51738        6.87409
H         -9.99510       13.91291        9.00826
H        -10.73863       12.97966       11.09578
H        -12.80600       12.30959        1.92780
H        -13.63990       11.25161        4.05842
H         -6.53694       14.57937        8.41308
H         -5.68007       15.51987        6.23111
H         -8.98221       14.02119        1.83742
H         -7.81553       16.38074        3.43548
H         -7.70966       16.07184        1.62228
