82

C          1.65111       -1.01849       -0.66328
C          1.97030       -0.26764       -1.77545
C          1.99403        1.14328       -1.68605
N          2.31303        1.86886       -2.79259
C          2.58869        1.19691       -3.93250
C          2.55495       -0.17569       -3.99410
N          2.24712       -0.92561       -2.91810
C          1.67534        1.74633       -0.44693
C          1.38334        0.96038        0.69096
C          1.36051       -0.44428        0.55688
N          1.06167       -1.26097        1.58696
C          0.78778       -0.67854        2.77142
C          0.81913        0.68305        2.93133
N          1.11919        1.50515        1.90860
C          1.70557        3.23852       -0.36739
C          0.92794        3.98765        0.43475
C          1.03022        5.39847        0.46208
N          0.22468        6.10147        1.33592
C          0.47328        7.44370        1.21578
C          1.43792        7.61023        0.24915
C          1.79370        6.32525       -0.21989
C         -0.15665        8.47245        1.96104
C         -0.58282        9.45565        2.50979
C         -0.92385       10.73055        3.02355
S         -0.26853       12.17404        2.36257
C         -1.08598       13.18821        3.48913
C         -1.85540       12.42809        4.33595
C         -1.74075       11.06650        4.04673
C         -2.54681       10.33206        4.95722
C         -3.23639       11.14490        5.87785
C         -4.14093       10.73348        6.94186
O         -4.72139       11.46870        7.73235
O         -4.24574        9.37243        6.94769
C         -5.05448        8.85722        8.00360
S         -2.94408       12.87004        5.71027
C         -0.93704       14.61235        3.48273
N         -1.57658       15.44330        4.37277
C         -1.25940       16.74606        4.11595
C         -0.38622       16.76875        3.05450
C         -0.18125       15.42647        2.65471
C         -1.77727       17.84615        4.84007
C         -2.20530       18.80736        5.41545
C         -2.68925       20.00562        6.04663
C         -1.94416       21.17804        5.89306
C         -2.41891       22.36998        6.47751
N         -1.68204       23.50780        6.35623
C         -0.53172       23.46751        5.65734
C         -0.08671       22.30985        5.08036
N         -0.77840       21.16227        5.19231
C         -3.64647       22.34865        7.17486
C         -4.37056       21.14851        7.35086
C         -3.88219       19.95665        6.77207
N         -4.55505       18.78378        6.91462
C         -5.69779       18.79345        7.62566
C         -6.17792       19.94604        8.19049
N         -5.53030       21.12203        8.06191
C         -4.20700       23.58178        7.80536
C         -4.10903       24.83202        7.33257
H          1.63321       -2.10268       -0.74970
H          2.83662        1.80014       -4.79833
H          2.77284       -0.71583       -4.90828
H          0.54116       -1.34297        3.59031
H          0.60002        1.16123        3.87828
H          2.41434        3.71042       -1.04550
H          0.20169        3.51813        1.09098
H         -0.45149        5.69564        1.96785
H          1.84658        8.55415       -0.08532
H          2.52762        6.09892       -0.98142
H         -2.63586        9.25170        4.95976
H         -5.11936        7.77340        7.87739
H         -6.06620        9.27252        7.96128
H         -4.58669        9.06705        8.97038
H         -2.20101       15.13783        5.10688
H          0.05012       17.65493        2.61197
H          0.45097       15.09618        1.84023
H          0.01283       24.39977        5.57641
H          0.83516       22.26449        4.51294
H         -6.21147       17.84467        7.72423
H         -7.09733       19.96320        8.76413
H         -4.77480       23.42249        8.72065
H         -3.57959       25.07420        6.41668
H         -4.55760       25.66183        7.86868
