93

C        -14.51468        2.65756       -2.36777
C        -15.11807        1.53070       -1.91616
C        -16.51517        1.46335       -1.63908
N        -17.64496        1.42465       -1.40382
C        -14.42837        0.28517       -1.84212
N        -13.87452       -0.73364       -1.83568
C        -15.20901        3.84879       -2.91554
C        -14.40894        4.37917       -3.93361
C        -14.87517        5.31265       -4.84896
C        -16.21770        5.74522       -4.71150
C        -16.95312        5.33063       -3.58834
C        -16.45183        4.40209       -2.64943
S        -18.51837        6.05944       -3.56001
C        -18.29255        6.73605       -5.08799
C        -17.03232        6.54286       -5.58832
Br       -19.64355        7.65011       -6.00704
C        -13.05840        3.76947       -3.89443
O        -12.11012        4.03413       -4.60278
C        -13.11286        2.77691       -2.77825
C        -12.04181        2.24768       -2.17590
N        -10.70899        2.38568       -2.47790
C         -9.63582        1.84060       -1.82642
S         -9.81387        0.72361       -0.50995
C         -8.15925        0.45103       -0.42100
N         -7.66370       -0.49662        0.52199
O         -6.76532       -0.10298        1.27575
O         -8.14687       -1.63525        0.48981
C         -7.42668        1.22646       -1.28038
C         -8.28165        2.04475       -2.09498
C         -7.73982        2.91206       -3.10624
C         -8.25748        4.08336       -3.51161
C         -7.76005        5.00480       -4.56227
C         -6.69411        4.79499       -5.45857
C         -6.24534        5.79803       -6.39979
N         -5.18211        5.52348       -7.19955
C         -4.58754        4.29845       -7.11553
C         -5.04591        3.33793       -6.25342
N         -6.08487        3.59187       -5.42627
C         -4.49020        2.02051       -6.14969
N         -4.05034        0.94974       -6.06103
C         -3.45548        4.07481       -7.96132
N         -2.52721        3.85691       -8.62306
C         -6.88930        7.05409       -6.53306
C         -8.07496        7.23378       -5.75768
C         -8.48158        6.21982       -4.72766
N         -9.56343        6.59813       -4.02271
S        -10.08887        8.02525       -4.65212
N         -8.98151        8.22095       -5.85726
C         -6.45705        8.07035       -7.53749
C         -6.48172        9.41674       -7.50254
C         -6.22035       10.27181       -8.64890
C         -6.81950       11.47400       -8.54851
C         -7.57957       11.60954       -7.31462
S         -6.95480       10.42606       -6.15960
C         -8.70063       12.33337       -7.12062
C         -9.36370       13.21436       -8.06382
C        -10.65094       13.46071       -7.75882
C        -11.10695       12.77502       -6.56015
S         -9.72087       12.16030       -5.69824
C        -12.40167       12.60109       -6.22933
C        -13.00052       11.83424       -5.15928
C        -12.33449       11.01997       -4.10140
N        -13.09147       10.36574       -3.26822
C        -14.33113       10.70199       -3.68230
C        -14.27862       11.59007       -4.82869
C        -15.69964       11.90150       -5.22569
S        -16.25677       12.83582       -6.48031
C        -16.49685       11.15100       -4.19425
C        -15.58211       10.45522       -3.32329
N        -16.24527        9.75888       -2.36301
C        -17.49068       10.03858       -2.62274
C        -17.74332       10.93120       -3.78538
C        -19.01841       11.37078       -4.24436
C        -19.90186       12.00323       -3.46211
H        -14.25191        5.64167       -5.67544
H        -17.06656        4.10208       -1.80760
H        -16.70386        6.90802       -6.55348
H        -12.20108        1.63587       -1.29450
H        -10.55038        2.93396       -3.32788
H         -6.34453        1.20090       -1.34097
H         -6.80854        2.55521       -3.53630
H         -9.15122        4.44125       -3.00093
H         -6.10610        7.60853       -8.46143
H         -5.66061        9.94314       -9.51361
H         -6.80086       12.22839       -9.32156
H         -8.87175       13.60939       -8.94168
H        -11.30525       14.07200       -8.36637
H        -13.13494       13.05898       -6.89465
H        -11.24786       10.96775       -4.02612
H        -18.34104        9.64888       -2.04270
H        -19.26810       11.16933       -5.28301
H        -19.68888       12.25548       -2.42672
H        -20.86620       12.31205       -3.85494
