91

C         -0.69685        1.48677        2.16165
C         -0.76770        0.91977        3.39206
C          0.38564        0.61113        4.17037
N          1.31902        0.36174        4.81819
C         -1.99749        0.59188        4.02781
N         -3.00020        0.32126        4.56407
C          0.55734        1.87435        1.41937
C          0.19485        2.41482        0.18233
C          1.08183        2.87804       -0.77970
C          2.45056        2.85307       -0.45959
C          2.84142        2.33503        0.78396
C          1.91223        1.81836        1.72828
S          4.55636        2.44151        0.97931
C          4.74887        3.17544       -0.52892
C          3.57613        3.31628       -1.21878
Br         6.40280        3.75316       -1.19016
C         -1.25319        2.47531        0.03683
O         -1.85309        2.95826       -0.90461
C         -1.82105        1.86191        1.27473
C         -3.15588        1.75462        1.34958
N         -4.07634        2.16813        0.39718
C         -5.42932        2.00375        0.37519
S         -6.26969        1.22434        1.66759
C         -7.71048        1.21738        0.81077
N         -8.83914        0.53708        1.35138
O         -9.93419        1.06655        1.15790
O         -8.64594       -0.53966        1.93297
C         -7.65515        1.92957       -0.36028
C         -6.32264        2.40142       -0.62524
C         -5.94213        3.16110       -1.79776
C         -6.79246        3.60687       -2.73908
C         -6.39532        4.37619       -3.87488
S         -7.50487        5.53678       -4.46791
C         -6.55938        5.95680       -5.85301
C         -5.34863        5.27277       -5.78790
C         -5.26306        4.37968       -4.66608
O         -4.20142        3.59558       -4.36514
S         -3.62494        2.73345       -5.66478
C         -2.90148        4.10258       -6.58846
S         -4.03963        5.46286       -6.96848
C         -6.99583        6.98458       -6.76906
C         -8.25768        7.25043       -7.15879
C         -8.64927        8.44462       -7.88947
C         -9.96535        8.71449       -7.80383
C        -10.69291        7.74179       -7.00333
S         -9.68564        6.31402       -6.79876
C        -11.87915        7.90530       -6.38508
C        -12.75799        9.05792       -6.45507
C        -13.71502        9.06904       -5.51244
C        -13.63828        7.94737       -4.60098
S        -12.51116        6.75678       -5.19982
C        -14.30615        7.86075       -3.43865
C        -14.13316        6.84962       -2.41732
C        -12.95000        6.59032       -1.80480
C        -13.18855        5.52233       -0.87051
C        -12.33498        4.84451       -0.08554
C        -12.91405        3.77732        0.70098
C        -12.33622        2.90245        1.54010
C        -13.33680        1.95070        2.04328
C        -14.55548        2.32366        1.58862
C        -14.34534        3.44750        0.70426
C        -15.20354        4.14682       -0.06148
C        -14.61846        5.18331       -0.89581
C        -15.16800        5.98493       -1.82277
C        -13.07762        0.82454        2.90767
C        -13.55645       -0.40936        2.69971
H          0.72015        3.27524       -1.72383
H          2.29784        1.43107        2.66301
H          3.50034        3.75759       -2.20562
H         -3.63111        1.30607        2.21173
H         -3.62381        2.56685       -0.43471
H         -8.51545        2.06208       -1.00651
H         -4.88947        3.41342       -1.90179
H         -7.85839        3.41020       -2.65082
H         -2.03331        4.48897       -6.04591
H         -2.54187        3.69966       -7.53954
H         -6.20997        7.65275       -7.11591
H         -7.93428        9.09111       -8.38027
H        -10.42234        9.60225       -8.21735
H        -12.64185        9.84239       -7.18903
H        -14.44323        9.85993       -5.39810
H        -15.01508        8.64073       -3.17081
H        -11.99790        7.06418       -1.98207
H        -11.27095        5.03837       -0.05720
H        -11.29065        2.86752        1.78934
H        -15.50252        1.86053        1.80695
H        -16.26492        3.94582       -0.09105
H        -16.20239        5.99630       -2.12668
H        -12.39424        0.99746        3.73553
H        -14.18517       -0.64634        1.84692
H        -13.28988       -1.22568        3.36363
