115

C         -8.14787        1.51767        4.88929
C         -9.14853        1.33803        5.84223
F         -9.91039        2.38140        6.19698
C         -9.35626        0.09598        6.42459
F        -10.32153       -0.07040        7.33869
C         -8.56493       -0.98895        6.07062
C         -7.54175       -0.82924        5.12665
C         -7.32417        0.44420        4.51663
C         -6.29489        0.60876        3.56153
C         -5.48182       -0.46775        3.23968
C         -5.74256       -1.70740        3.84014
C         -6.73929       -1.91454        4.77631
C         -4.88369       -2.75521        3.28173
O         -4.80262       -3.89004        3.70228
C         -4.17795       -2.11302        2.11971
C         -4.32416       -0.65158        2.31323
C         -3.46283        0.31623        1.93246
C         -2.24281       -0.00191        1.24810
N         -1.24667       -0.25637        0.72300
C         -3.63583        1.69501        2.26237
N         -3.79675        2.81654        2.53971
C         -3.76906       -2.80254        1.03785
C         -3.97809       -4.21571        0.91512
S         -2.74268       -5.30825        1.39532
C         -5.09688       -4.90271        0.45908
C         -6.31140       -4.26100       -0.09067
O         -6.39521       -3.07098       -0.36868
C         -7.41397       -5.20397       -0.24942
C         -8.73058       -4.95286       -0.60289
N         -9.40339       -6.15071       -0.61209
C        -10.81465       -6.32390       -0.92387
C        -11.04727       -6.64217       -2.39073
C         -8.54586       -7.16196       -0.25592
C         -7.29640       -6.61456       -0.02762
C         -6.06785       -7.29268        0.38225
O         -5.97902       -8.50480        0.49449
C         -4.97075       -6.34742        0.66161
C         -3.72511       -6.70613        1.16890
C         -3.19969       -7.98185        1.51680
N         -3.33890       -8.59648        2.76737
C         -3.99506       -8.06497        3.93182
C         -2.78213       -9.88682        2.77801
O         -2.72399      -10.71673        3.66236
C         -2.25557      -10.01278        1.41772
C         -2.52472       -8.79679        0.69442
C         -1.96556       -8.98226       -0.66467
O         -1.96567       -8.17474       -1.57123
N         -1.45040      -10.30157       -0.62334
C         -0.88744      -10.97992       -1.76742
C         -1.63494      -10.88148        0.62509
C         -1.26962      -12.21913        0.98711
C         -0.01631      -12.70174        0.99331
C          0.28253      -14.01223        1.46772
S         -0.61727      -14.74809        2.75812
C          0.27213      -16.23210        2.71351
C          1.26737      -16.12086        1.77921
C          1.28629      -14.87473        1.10491
C          2.37626      -14.83329        0.15371
O          2.67297      -13.89666       -0.56682
C          3.11080      -16.17909        0.23688
C          2.34581      -16.96401        1.30596
O          2.61545      -18.09373        1.68259
C         -0.12566      -17.26292        3.60276
C         -0.04850      -18.55851        3.26976
C         -0.44603      -19.68046        4.08905
C         -1.41470      -19.77080        5.00759
C         -1.39565      -20.96131        5.91911
O         -0.91373      -22.05438        5.71945
C         -2.02414      -20.49329        7.16660
C         -2.11890      -21.20336        8.34998
C         -2.67411      -20.55333        9.45601
C         -3.05748      -19.17976        9.35766
C         -3.58044      -18.53184       10.48382
C         -3.76051      -19.23414       11.67048
C         -3.41324      -20.57532       11.75720
C         -2.86168      -21.23626       10.66470
F         -3.61182      -21.24992       12.89762
F         -4.28662      -18.60414       12.72941
C         -2.93587      -18.49184        8.13651
C         -2.47483      -19.17048        7.02005
C         -2.35591      -18.80712        5.58338
C         -3.18544      -17.96301        4.92234
C         -3.27994      -17.95305        3.49840
N         -3.40816      -17.95129        2.34646
C         -4.09314      -17.09545        5.59716
N         -4.80108      -16.37568        6.17344
H         -8.01892        2.50673        4.45644
H         -8.75525       -1.94976        6.54184
H         -6.17106        1.57717        3.08534
H         -6.88753       -2.90429        5.19864
H         -3.40045       -2.29494        0.14883
H         -9.23183       -4.02474       -0.84052
H        -11.33588       -5.40242       -0.64160
H        -11.19934       -7.13124       -0.29070
H        -10.60900       -5.87592       -3.03858
H        -12.11968       -6.69779       -2.60381
H        -10.59877       -7.60445       -2.65977
H         -8.88787       -8.18906       -0.18510
H         -5.07713       -8.10835        3.78598
H         -3.66863       -7.04031        4.12083
H         -3.74313       -8.67465        4.80756
H         -0.92880      -10.34354       -2.65429
H         -1.45763      -11.89502       -1.96051
H          0.15588      -11.23666       -1.56277
H         -2.10537      -12.82043        1.34364
H          0.81119      -12.09046        0.63833
H          4.14225      -16.03053        0.56411
H          3.04394      -16.70016       -0.72070
H         -0.55851      -16.95289        4.54892
H          0.40290      -18.85923        2.32405
H          0.18967      -20.55679        3.92623
H         -1.77075      -22.23150        8.39497
H         -3.87339      -17.48513       10.45047
H         -2.59919      -22.28576       10.76863
H         -3.21730      -17.44396        8.08666
