98

C          8.35273       -2.69102        4.54899
O          7.77688       -3.88860        4.80828
C          7.16051       -4.35352        3.65868
C          7.35515       -3.37393        2.68763
C          8.12877       -2.32484        3.24784
N          6.86040       -3.43163        1.35278
O          5.64012       -3.58307        1.21498
O          7.69447       -3.31129        0.44898
C          6.47932       -5.60653        3.60052
C          6.32268       -6.34458        4.71021
C          5.58536       -7.58923        4.78167
C          6.12141       -8.79309        5.10659
N          7.51437       -9.03015        5.40958
O          8.15609       -8.15215        6.00098
O          7.96821      -10.13792        5.08735
C          5.13321       -9.84114        5.14439
C          3.93835       -9.30661        4.85766
C          4.12043       -7.88091        4.54511
C          3.13114       -7.04415        4.14161
C          3.28665       -5.60141        3.93115
C          2.09936       -5.08101        3.59807
C          1.12879       -6.14404        3.58590
N         -0.27686       -5.90328        3.32145
O         -0.69346       -4.75900        3.56907
O         -0.96188       -6.81518        2.85488
C          1.68272       -7.34578        3.85973
C          0.95922       -8.59977        3.90982
C          1.18539       -9.66135        3.11619
C          0.48376      -10.91292        3.25314
N          0.17017      -11.75941        2.18625
C          0.49043      -11.55318        0.78982
C          1.80508      -12.21921        0.41145
C         -0.45549      -12.94795        2.62380
O         -0.83440      -13.91103        1.99097
C         -0.49527      -12.76824        4.08166
C          0.10264      -11.50176        4.39266
C          0.09489      -11.34907        5.85882
O          0.53734      -10.42035        6.50444
N         -0.52281      -12.53711        6.29160
C         -0.78605      -12.80490        7.68986
C         -2.16435      -12.31267        8.09847
C         -0.85753      -13.35862        5.21893
C         -1.46212      -14.64579        5.37127
C         -0.87762      -15.76815        4.92885
C         -1.46743      -17.06736        5.06929
C         -2.68329      -17.40667        4.59298
C         -2.91943      -18.82070        4.89190
C         -1.71250      -19.27978        5.60316
C         -0.86792      -18.23640        5.68494
C         -1.41775      -20.55573        6.12865
N         -1.17834      -21.60507        6.56496
C         -4.02108      -19.52126        4.54910
C         -4.24508      -20.93352        4.84784
C         -5.43266      -21.29987        4.32991
C         -6.03671      -20.14182        3.69734
C         -5.21682      -19.08134        3.81297
C         -5.51388      -17.80668        3.27765
N         -5.76400      -16.76394        2.83582
C         -5.93087      -22.62037        4.45533
O         -7.27153      -22.91885        4.48591
C         -7.45729      -24.27596        4.66874
C         -6.19300      -24.84441        4.71052
C         -5.23684      -23.81554        4.55753
N         -5.91418      -26.23498        4.83169
O         -6.39236      -26.82164        5.80964
O         -5.19514      -26.72934        3.95610
C         -8.74306      -24.87870        4.76201
C         -9.81291      -24.30318        4.20088
H          8.87742       -2.23714        5.37923
H          8.46696       -1.41848        2.76503
H          6.02793       -5.92100        2.66267
H          6.77979       -6.02489        5.64899
H          5.33178      -10.86447        5.42690
H          3.01511       -9.85364        4.91805
H          4.16313       -4.99554        4.04184
H          1.89227       -4.04541        3.37376
H          0.15487       -8.62926        4.64609
H          1.96358       -9.61816        2.35814
H          0.51726      -10.48228        0.56712
H         -0.31253      -11.99276        0.18588
H          2.63414      -11.82528        1.00796
H          2.02908      -12.04805       -0.64571
H          1.76165      -13.30115        0.57843
H         -0.03061      -12.28501        8.29049
H         -0.67754      -13.87646        7.88919
H         -2.25689      -11.23389        7.93436
H         -2.34530      -12.51660        9.15767
H         -2.94936      -12.80457        7.51522
H         -2.42016      -14.68017        5.88372
H          0.09640      -15.74001        4.44340
H         -3.33066      -16.72821        4.06186
H          0.10973      -18.23665        6.14550
H         -3.59691      -21.58911        5.40397
H         -6.99645      -20.16569        3.20113
H         -4.16092      -23.92998        4.52832
H         -8.85074      -25.82746        5.28191
H         -9.74791      -23.36643        3.65470
H        -10.78840      -24.77468        4.26490
