94

C         -2.96539       -1.65332        1.02546
C         -3.55301       -2.84566        1.29291
C         -2.85066       -4.08484        1.25022
N         -2.28597       -5.09815        1.20809
C         -4.91962       -2.95182        1.68536
N         -6.03556       -3.03056        1.99425
C         -1.51954       -1.41686        0.72597
C         -1.25700       -0.05021        0.86624
C         -0.02512        0.53752        0.60491
C          1.01654       -0.29873        0.14733
C          0.76863       -1.67363        0.01483
C         -0.49288       -2.25527        0.30398
S          2.17404       -2.50591       -0.55172
C          3.05959       -1.07324       -0.65484
C          2.35418        0.03165       -0.26053
Br         4.83182       -1.00412       -1.25703
C         -2.48063        0.68729        1.21258
O         -2.55140        1.86717        1.48889
C         -3.59194       -0.31259        1.10359
C         -4.86518        0.06319        0.89928
C         -5.37079        1.44839        0.87425
C         -5.89827        2.09813        1.98666
C         -6.59452        3.36238        1.87776
N         -7.21046        3.81077        2.98920
C         -6.95573        3.22623        4.19355
C         -6.19664        2.09071        4.29139
N         -5.72902        1.48027        3.17832
C         -5.80584        1.50895        5.54282
N         -5.48087        1.06378        6.56502
C         -7.47983        3.91307        5.33566
N         -7.89076        4.47463        6.26515
C         -6.64468        4.14506        0.67475
C         -5.92392        3.56213       -0.42492
C         -5.34430        2.17053       -0.33995
N         -4.84032        1.73074       -1.50640
S         -4.95505        2.98282       -2.57883
N         -5.65338        4.13188       -1.61514
C         -7.35546        5.47224        0.50484
C         -8.06897        5.86326       -0.67114
C         -8.62521        7.19044       -0.88495
N         -9.17440        7.52429       -2.07508
C         -9.23401        6.58621       -3.05107
C         -8.79227        5.31121       -2.83151
N         -8.24803        4.94289       -1.63853
C         -8.84397        4.28512       -3.82529
N         -8.88790        3.46187       -4.64323
C         -9.80455        7.01157       -4.29868
N        -10.26901        7.33220       -5.30995
C         -8.67409        8.16105        0.12285
C         -8.19891        7.73177        1.38996
C         -7.42739        6.44293        1.55200
N         -6.83132        6.39105        2.75737
S         -7.51575        7.55587        3.70539
N         -8.42616        8.32622        2.57360
C         -9.34410        9.48395       -0.04306
C         -9.02365       10.67793        0.48870
C         -9.90667       11.83159        0.51659
C         -9.68219       12.62151        1.58518
C         -8.60340       12.11421        2.41941
S         -7.60205       11.04455        1.42629
C         -8.47459       12.22605        3.75573
C         -9.30687       12.97339        4.67832
C         -9.08716       12.67964        5.97253
C         -8.06228       11.67413        6.18329
S         -7.32642       11.25620        4.66072
C         -7.76992       11.10640        7.37054
C         -6.81838        9.99576        7.63746
C         -5.51214        9.86632        7.10906
C         -4.74332        8.65679        7.24957
N         -3.56344        8.49855        6.62464
C         -3.09687        9.53796        5.88092
C         -3.77658       10.72974        5.80923
N         -4.96174       10.90308        6.44521
C         -3.30237       11.85690        5.06482
N         -2.88870       12.76036        4.46430
C         -1.86061        9.31451        5.19401
N         -0.86030        9.15344        4.62694
C         -5.15591        7.59655        8.04242
C         -6.37373        7.74679        8.73242
C         -7.23774        8.95767        8.52147
N         -8.37365        8.90532        9.24113
S         -8.32699        7.49754       10.12108
N         -6.87720        6.87354        9.61477
H          0.10980        1.61102        0.70525
H         -0.61825       -3.32018        0.14552
H          2.75490        1.03836       -0.26662
H         -5.64656       -0.65847        0.68181
H        -10.25869        9.42634       -0.63248
H        -10.71193       11.97817       -0.18887
H        -10.28252       13.48094        1.84547
H        -10.05250       13.68398        4.35006
H         -9.63927       13.12251        6.79080
H         -8.34887       11.41095        8.24186
H         -4.55136        6.70433        8.16243
