92

C         -0.44180        1.35289        1.18860
C          0.43797        1.47429        2.26286
F          0.71735        2.69267        2.74531
C          1.01520        0.34900        2.83320
F          1.84389        0.47230        3.87973
C          0.73532       -0.91544        2.33347
C         -0.14640       -1.06462        1.25259
C         -0.75714        0.08682        0.67133
C         -1.68360       -0.05815       -0.38780
C         -2.00140       -1.32686       -0.85853
C         -1.37979       -2.43202       -0.26027
C         -0.45385       -2.33516        0.76530
C         -1.92885       -3.68765       -0.78613
O         -1.47488       -4.79489       -0.58991
C         -3.11901       -3.28396       -1.60474
C         -2.97574       -1.83506       -1.87129
C         -3.49432       -1.14592       -2.91475
C         -4.30949       -1.77168       -3.90725
N         -4.96806       -2.28022       -4.71033
C         -3.20614        0.23075       -3.14560
N         -2.96794        1.35131       -3.31871
C         -4.18008       -4.08903       -1.78501
C         -4.29915       -5.45506       -1.22972
C         -3.83588       -6.52445       -1.98958
C         -3.90635       -7.81856       -1.48185
C         -4.47438       -8.08947       -0.22259
C         -4.96854       -6.99995        0.54478
N         -5.55536       -7.18983        1.75505
C         -5.96391       -6.11159        2.45415
C         -5.83154       -4.83797        1.96391
N         -5.28793       -4.59765        0.75600
C         -4.85602       -5.66810        0.03844
C         -4.51711       -9.51691        0.26081
C         -4.68741      -10.73649       -0.42930
C         -4.73691      -10.83512       -1.85636
N         -4.65456      -10.90546       -3.01221
C         -4.62620      -11.83531        0.45936
C         -4.26464      -11.48714        1.71055
S         -4.15920       -9.84581        1.95209
S         -3.92389      -12.79306        2.72178
C         -4.27790      -13.83709        1.44722
C         -4.73016      -13.22485        0.33630
C         -5.26002      -14.12433       -0.61966
C         -6.11284      -13.72349       -1.69999
N         -6.87103      -13.36430       -2.50117
C         -4.99281      -15.46625       -0.26165
S         -4.15637      -15.48528        1.29275
C         -5.28556      -16.78553       -0.92782
C         -5.53176      -18.01961       -0.24341
C         -5.72515      -19.27549       -0.93164
N         -5.91438      -20.42799       -0.24910
C         -5.90331      -20.39541        1.10433
C         -5.73906      -19.21260        1.77503
N         -5.58044      -18.03667        1.10814
C         -5.70801      -19.12750        3.20292
N         -5.67971      -19.07901        4.36349
C         -6.08643      -21.65219        1.76744
N         -6.24164      -22.65844        2.32503
C         -5.73287      -19.36489       -2.32484
C         -5.55799      -18.16771       -3.06121
C         -5.29043      -16.86619       -2.35429
N         -5.03775      -15.87503       -3.22383
S         -5.27695      -16.46295       -4.75067
N         -5.60075      -18.04486       -4.39916
C         -5.83188      -20.63319       -3.06644
C         -4.76649      -21.34769       -3.46146
C         -4.83682      -22.53923       -4.27196
C         -3.64541      -22.93201       -4.74690
C         -2.54138      -22.07463       -4.34341
S         -3.10393      -20.91299       -3.14019
C         -1.29620      -22.07874       -4.85826
C         -0.81990      -22.92476       -5.93990
C          0.39399      -22.58813       -6.39923
C          0.97715      -21.47361       -5.69805
S         -0.02629      -20.94654       -4.37876
C          2.13098      -20.87805       -6.00846
H         -0.87707        2.25767        0.77403
H          1.19511       -1.77768        2.80993
H         -2.16680        0.83156       -0.78157
H         -0.02753       -3.23822        1.19488
H         -5.10047       -3.73835       -2.24301
H         -3.39362       -6.35843       -2.96986
H         -3.48047       -8.60400       -2.09951
H         -6.40099       -6.30980        3.42589
H         -6.16422       -3.97242        2.52458
H         -6.83876      -20.94239       -3.33097
H         -5.76924      -23.03561       -4.50357
H         -3.52462      -23.78547       -5.39864
H         -1.40490      -23.72502       -6.36957
H          0.88870      -23.08120       -7.22442
H          2.73236      -21.20498       -6.84909
H          2.49918      -20.03177       -5.43612
