94

C         -6.60447        3.89540        2.40672
C         -6.86938        4.25255        3.73191
C         -6.64226        3.34946        4.77598
C         -6.10901        2.08458        4.52055
C         -5.78920        1.74507        3.21148
C         -6.07211        2.63899        2.14036
C         -5.77734        1.93614        0.84606
C         -5.57124        2.50036       -0.36720
C         -5.67599        3.90296       -0.59279
N         -5.76349        5.04530       -0.78217
C         -5.15871        1.73902       -1.49935
N         -4.83244        1.11849       -2.42372
C         -5.60721        0.49501        1.21773
C         -5.19128        0.50295        2.63485
C         -4.24049       -0.26497        3.21763
C         -3.49191       -1.22602        2.47907
N         -2.84087       -1.98982        1.89233
C         -3.88210       -0.12193        4.58881
N         -3.62902       -0.02397        5.71738
C         -6.08880       -0.52412        0.47695
C         -6.22325       -1.90568        0.82062
S         -6.01889       -3.04949       -0.48649
C         -6.37512       -4.42510        0.47669
C         -6.57006       -4.02976        1.77200
C         -6.56383       -2.60940        1.95803
C         -6.96363       -2.30834        3.36523
C         -6.60578       -3.62995        4.09711
C         -6.83282       -4.74892        3.04999
C         -6.44440       -5.75070       -0.08056
N         -5.73603       -6.09435       -1.21246
C         -5.98921       -7.40477       -1.49678
C         -5.65164       -8.42913       -2.40992
C         -6.32723       -9.55308       -1.95943
N         -7.08963       -9.21029       -0.85898
C         -6.84850       -7.89226       -0.57074
C         -7.17248       -6.85648        0.34404
C         -6.33236      -10.90968       -2.37362
C         -5.99069      -11.26104       -3.62521
C         -5.92095      -12.63082       -4.00148
S         -6.26930      -13.12137       -5.61322
C         -6.37709      -14.82038       -5.21080
C         -5.77535      -14.97057       -3.97928
C         -5.50180      -13.74132       -3.31491
C         -4.83554      -13.96807       -2.00385
C         -4.34505      -15.43327       -2.14977
C         -5.34598      -16.11781       -3.12771
C         -6.84231      -15.82773       -6.12744
C         -7.77195      -15.66705       -7.09767
C         -7.90257      -16.54553       -8.30273
C         -7.98193      -17.89670       -8.34250
C         -7.91340      -18.68027       -7.15035
N         -7.84225      -19.31566       -6.18552
C         -8.20839      -18.62350       -9.54886
N         -8.39102      -19.21971      -10.52865
C         -8.06080      -15.58697       -9.45292
C         -8.31993      -14.29027       -8.92441
C         -8.31749      -13.16927       -9.74220
C         -8.13528      -13.34552      -11.11349
C         -7.94893      -14.62538      -11.65031
C         -7.89217      -15.75191      -10.82236
C         -8.47789      -14.41730       -7.45180
C         -9.28811      -13.68425       -6.65194
C         -9.91347      -12.48721       -7.09768
N        -10.39384      -11.49484       -7.46045
C         -9.59524      -14.10036       -5.32074
N         -9.87907      -14.45637       -4.25285
H         -6.84663        4.61338        1.63113
H         -7.27880        5.23718        3.95256
H         -6.88974        3.63582        5.79672
H         -5.97710        1.39895        5.35125
H         -6.46876       -0.29968       -0.51900
H         -8.04426       -2.13443        3.41097
H         -6.46290       -1.46851        3.83422
H         -7.18323       -3.78069        5.01281
H         -5.54085       -3.60859        4.37111
H         -7.86670       -5.10505        3.08710
H         -6.14737       -5.58590        3.21196
H         -5.11221       -5.50326       -1.74613
H         -4.97396       -8.36950       -3.24809
H         -7.71120       -9.79875       -0.32064
H         -7.84269       -6.90921        1.19004
H         -6.59516      -11.66939       -1.64153
H         -5.79678      -10.50659       -4.38304
H         -5.55305      -13.87920       -1.18263
H         -3.99847      -13.28327       -1.83694
H         -4.26248      -15.94665       -1.18819
H         -3.34752      -15.42601       -2.61201
H         -6.20026      -16.51865       -2.57164
H         -4.86416      -16.91914       -3.69282
H         -6.31426      -16.77508       -6.04280
H         -8.41860      -12.16268       -9.34880
H         -8.12594      -12.47822      -11.77101
H         -7.81543      -14.73956      -12.72481
H         -7.68627      -16.71169      -11.28290
