124

C         -5.91639        5.19372       11.16266
C         -6.75789        4.71575       10.21322
C         -8.04238        5.27908        9.99504
N         -9.09763        5.74226        9.82076
C         -6.47948        3.53893        9.45787
N         -6.31792        2.56456        8.84582
C         -6.26440        6.19027       12.19485
C         -5.57383        5.84442       13.36687
C         -5.73320        6.52815       14.55738
C         -6.55623        7.66389       14.55451
C         -7.16731        8.09839       13.34059
C         -7.03138        7.34117       12.16427
C         -7.89145        9.29777       13.32962
C         -8.05512       10.04120       14.49819
C         -7.50836        9.58834       15.69551
C         -6.75838        8.41105       15.72357
C         -4.57240        4.79381       13.07086
O         -3.80939        4.26404       13.84757
C         -4.62871        4.63439       11.58346
C         -3.48313        4.39783       10.91971
C         -3.33405        4.69558        9.54718
S         -4.07075        6.04021        8.74541
C         -3.37130        5.68087        7.20729
C         -2.64730        4.55097        7.35230
C         -2.61222        4.02734        8.62543
O         -1.90077        2.88247        8.80142
C         -1.47556        2.69235        7.49828
N         -0.64233        1.55169        7.29079
O         -0.24037        1.37067        6.13291
O         -0.36664        0.86009        8.27606
C         -1.89144        3.65901        6.58091
C         -3.68261        6.53938        6.13972
C         -2.93572        6.63170        5.03398
C         -3.27317        7.48792        3.90463
C         -4.58091        7.71422        3.60363
C         -4.94281        8.28492        2.33296
C         -6.15442        8.38683        1.72071
C         -7.59216        8.24951        2.24302
C         -8.23511        6.83699        2.10801
N         -7.56873        5.77575        2.86742
C         -7.83059        8.72417        3.70765
N         -7.51775       10.13179        3.94909
C         -5.76878        8.63050        0.31856
C         -6.39737        8.33368       -0.82714
C         -5.66282        8.31197       -2.17307
C         -4.26911        8.92552       -2.13460
C         -3.65731        9.25889       -0.98975
C         -4.34805        8.94277        0.22310
C         -3.84795        8.68201        1.42938
C         -2.47614        8.63118        1.85276
C         -2.21158        8.01814        3.01889
C         -6.54925        8.92144       -3.21267
C         -6.17720        9.58627       -4.31740
C         -7.15152       10.12388       -5.17544
S         -8.72333        9.46249       -5.45160
C         -9.17647       10.70304       -6.57242
C         -8.13159       11.55386       -6.68913
C         -7.03404       11.23771       -5.92170
O         -5.96576       12.07730       -5.98404
C         -6.46375       12.99373       -6.88885
N         -5.57641       14.07114       -7.19697
O         -5.98187       14.89983       -8.02281
O         -4.48320       14.09402       -6.61918
C         -7.75748       12.73136       -7.35823
C        -10.45365       10.66644       -7.16230
C        -11.47583       11.27749       -6.55202
C        -12.80692       11.26330       -7.10391
C        -13.88151       11.85623       -6.56714
C        -15.28779       11.75491       -6.99574
C        -15.73455       11.64252       -8.26895
C        -17.12048       11.63172       -8.59018
N        -18.24550       11.61423       -8.85528
C        -14.85955       11.59685       -9.40663
N        -14.16192       11.55929      -10.31931
C        -16.10586       11.97883       -5.76490
C        -15.26215       12.47957       -4.76229
C        -13.87829       12.54657       -5.23465
O        -12.95738       13.05511       -4.63144
C        -15.67358       12.77519       -3.47407
C        -17.00926       12.54629       -3.14820
C        -17.90045       12.03388       -4.13421
C        -17.43529       11.74849       -5.44057
C        -19.23761       11.80914       -3.77365
C        -19.68573       12.07281       -2.47638
C        -18.80481       12.56281       -1.51620
C        -17.47293       12.79931       -1.85024
H         -5.18979        6.21590       15.44445
H         -7.49710        7.68358       11.24438
H         -8.32856        9.67268       12.40603
H         -8.61389       10.97355       14.47283
H         -7.65541       10.15996       16.60857
H         -6.32754        8.08709       16.66882
H         -2.59395        4.08509       11.46976
H         -1.66461        3.67882        5.52268
H         -4.57598        7.14467        6.25752
H         -2.02913        6.04199        4.91097
H         -5.38961        7.32872        4.20308
H         -8.20406        8.92082        1.61812
H         -8.24732        6.53813        1.05993
H         -9.28849        6.87847        2.43379
H         -6.56494        5.84848        2.70646
H         -7.83074        4.87301        2.46326
H         -7.28009        8.10522        4.41992
H         -8.88854        8.58471        3.96145
H         -6.51848       10.28686        3.81952
H         -7.71887       10.35394        4.92373
H         -7.40881        7.95023       -0.82259
H         -5.54295        7.25251       -2.44027
H         -3.72438        9.06189       -3.06262
H         -2.66152        9.68333       -0.96884
H         -1.69280        9.02684        1.21723
H         -1.17912        7.91684        3.34101
H         -7.60955        8.76364       -3.02275
H         -5.13301        9.73504       -4.57300
H         -8.32029       13.32588       -8.06428
H        -10.57787       10.13452       -8.09866
H        -11.30714       11.80407       -5.61538
H        -12.90213       10.66630       -8.00767
H        -14.95667       13.14289       -2.74451
H        -18.13172       11.32334       -6.15687
H        -19.94894       11.42360       -4.50163
H        -20.72528       11.89218       -2.21434
H        -19.15268       12.76066       -0.50542
H        -16.79811       13.17750       -1.08454
