73

C         -0.60635       -5.09927        6.00378
N         -0.39171       -4.47016        4.82232
N         -0.89262       -4.96433        3.56822
C         -1.63169       -6.10281        3.44887
C         -1.87708       -6.78247        4.65533
C         -1.36075       -6.27534        5.92148
N         -1.73329       -7.11398        6.89693
O         -2.45409       -8.11836        6.27744
N         -2.54106       -7.92122        4.91170
C         -2.07958       -6.55346        2.14118
C         -3.21471       -7.28580        1.77799
C         -3.23156       -7.55127        0.39021
C         -2.12772       -7.01680       -0.23301
S         -1.08610       -6.19295        0.75767
C         -2.15974       -7.36163       -1.59695
C         -3.28058       -8.11952       -1.84341
C         -4.04762       -8.25709       -0.60251
C         -5.23180       -8.87419       -0.42224
C         -5.91287       -9.51278       -1.49730
N         -6.46247      -10.03411       -2.37619
C         -5.87093       -8.90276        0.84737
N         -6.39140       -8.91973        1.88384
C         -3.32310       -8.55038       -3.18808
C         -2.20182       -8.10663       -3.89855
S         -1.18416       -7.10173       -2.90788
C         -1.85669       -8.38046       -5.27878
C         -0.61277       -8.47289       -5.87144
C         -0.67784       -8.73402       -7.29397
N          0.42772       -8.84401       -8.08746
C          1.58786       -8.67370       -7.37541
C          2.83921       -8.75005       -8.16725
O          2.84706       -8.96369       -9.37293
C          4.12168       -8.56159       -7.46056
C          4.17677       -8.35139       -6.14548
C          2.95781       -8.28885       -5.31922
O          3.06495       -8.11654       -4.11143
C          1.64961       -8.44175       -6.00008
N          0.55902       -8.33879       -5.18866
C         -1.97195       -8.88988       -7.74885
S         -3.08325       -8.64053       -6.45034
C         -2.43901       -9.19903       -9.08687
C         -1.82089       -8.90240      -10.30662
C         -2.60368       -9.34023      -11.40047
C         -3.75039       -9.96678      -10.97294
S         -3.93452      -10.06213       -9.33194
C         -4.51512      -10.34690      -12.09085
C         -3.85425       -9.96897      -13.23597
C         -2.58834       -9.32429      -12.86692
C         -1.64326       -8.82052      -13.68316
C         -0.49015       -8.15826      -13.17639
N          0.43576       -7.59105      -12.77368
C         -1.75564       -8.90524      -15.09753
N         -1.85019       -8.97597      -16.25274
C         -4.62229      -10.25915      -14.38716
C         -5.85684      -10.82345      -14.04551
S         -5.99493      -11.05360      -12.32561
C         -6.98215      -11.20289      -14.88494
N         -8.25151      -11.15526      -14.38830
N         -9.42142      -11.48272      -15.15801
C         -9.36623      -11.86968      -16.45582
C         -8.07882      -11.92986      -17.00252
C         -6.88715      -11.59766      -16.22983
N         -5.82283      -11.75664      -17.03210
O         -6.31982      -12.16777      -18.25467
N         -7.69889      -12.27352      -18.23986
H         -0.19424       -4.67172        6.90431
H         -3.95821       -7.60765        2.49822
H         -4.08773       -9.17798       -3.63075
H          5.01711       -8.60974       -8.06997
H          5.11867       -8.21835       -5.62308
H         -0.87275       -8.38000      -10.36989
H         -4.34543      -10.03299      -15.41071
H        -10.28592      -12.09959      -16.97113
