103

C         -1.40773       -1.94027       -4.91132
O         -1.05530       -2.14573       -3.77041
C         -1.51236       -0.60996       -5.51487
C         -1.60195       -0.71180       -6.90939
C         -1.76520        0.45754       -7.63996
C         -1.82587        1.69374       -6.96123
C         -1.73981        1.75543       -5.55556
C         -1.57865        0.58549       -4.81710
Br        -1.86078        3.37720       -4.57519
Br        -2.04098        3.24888       -8.03543
C         -1.54614       -2.16152       -7.27005
C         -1.17797       -2.68041       -8.46599
C         -0.84107       -1.86051       -9.57840
N         -0.56237       -1.17913      -10.47836
C         -1.01725       -4.08410       -8.67466
N         -0.89872       -5.22433       -8.84439
C         -1.75936       -2.90827       -6.00572
C         -2.33632       -4.11206       -5.82401
C         -2.71336       -4.77924       -4.55783
C         -2.69778       -6.18650       -4.50579
C         -3.09515       -6.82381       -3.31264
C         -3.47782       -6.09932       -2.18582
C         -3.50862       -4.69961       -2.25160
C         -3.17408       -4.06556       -3.44841
C         -3.79227       -7.02535       -1.15486
C         -3.71099       -8.30174       -1.69800
N         -3.18277       -8.16046       -2.96706
C         -2.71457       -9.24178       -3.80738
C         -4.12084       -9.43523       -0.96713
C         -4.53159       -9.31492        0.38140
C         -4.49195       -8.02137        0.93512
C         -4.17647       -6.88153        0.18530
C         -4.99625      -10.49973        1.18215
C         -4.54708      -11.83157        0.99841
C         -5.05535      -12.96248        1.76164
N         -4.62859      -14.20690        1.44791
C         -3.70812      -14.36537        0.47675
C         -3.19342      -13.29740       -0.20334
N         -3.60152      -12.04169        0.05574
F         -2.27853      -13.47511       -1.16641
F         -3.29534      -15.60994        0.19661
C         -5.98405      -12.83360        2.83116
C         -6.43596      -11.49605        3.06394
C         -5.97743      -10.34062        2.21020
N         -6.61368       -9.19874        2.53455
S         -7.56265       -9.48524        3.84229
N         -7.27591      -11.09147        4.03695
C         -6.47655      -13.97349        3.68466
C         -7.76601      -13.97213        4.26577
C         -8.17199      -15.01788        5.12138
C         -7.37557      -16.13166        5.34359
C         -6.10889      -16.17962        4.74259
C         -5.67150      -15.09459        3.96458
C         -8.08541      -17.00487        6.21612
C         -9.29352      -16.39059        6.55000
N         -9.30393      -15.16967        5.90185
C        -10.27908      -14.11708        6.09569
C        -10.21605      -17.00161        7.42299
C         -9.88685      -18.24456        7.99174
C         -8.64976      -18.82949        7.69947
C         -7.76936      -18.25088        6.78434
C        -10.80649      -18.84243        8.97703
C        -11.00614      -20.14280        9.24413
C        -11.64346      -20.50118       10.55334
O        -12.35792      -19.81706       11.25411
C        -11.13325      -21.84799       10.87344
C        -10.33587      -22.33421        9.82222
C        -10.45428      -21.38181        8.68414
C        -10.33569      -21.69607        7.37100
C        -10.83642      -20.84554        6.33871
N        -11.28578      -20.19999        5.48560
C         -9.78963      -22.92943        6.92503
N         -9.31179      -23.93262        6.57954
C         -9.64706      -23.52475       10.00309
C         -9.82683      -24.24508       11.19880
C        -10.68142      -23.76370       12.21182
C        -11.33163      -22.53734       12.05831
Br       -11.00396      -24.71188       13.82545
Br        -8.86667      -25.87944       11.35835
H         -1.86780        0.44942       -8.72092
H         -1.53033        0.58790       -3.73136
H         -2.63527       -4.70206       -6.68805
H         -2.39464       -6.77521       -5.36718
H         -3.81346       -4.11151       -1.39158
H         -3.27496       -2.98567       -3.46720
H         -2.81005      -10.19869       -3.29120
H         -1.65840       -9.06529       -4.03199
H         -3.30732       -9.25236       -4.72461
H         -4.12314      -10.39655       -1.46727
H         -4.73786       -7.84661        1.97979
H         -4.22846       -5.89786        0.64247
H         -8.46047      -13.15725        4.08852
H         -5.45518      -17.03191        4.90449
H         -4.65712      -15.16787        3.58037
H        -10.93657      -14.35336        6.93392
H        -10.85812      -14.00959        5.17608
H         -9.74396      -13.18964        6.32326
H        -11.15603      -16.51404        7.66575
H         -8.32639      -19.74494        8.18450
H         -6.83060      -18.73982        6.54296
H        -11.29732      -18.10257        9.61352
H         -8.96792      -23.91401        9.25066
H        -11.96882      -22.12190       12.83404
