89

C          3.74423       -3.36662       -2.43779
O          3.54822       -4.53752       -2.68017
C          4.22393       -2.35988       -3.39358
C          4.64165       -1.20705       -2.71006
C          4.99295       -0.08774       -3.44982
C          4.93567       -0.15285       -4.85631
C          4.52781       -1.33324       -5.51350
C          4.16849       -2.45948       -4.77283
Br         4.38767       -1.47013       -7.40250
Br         5.39931        1.43248       -5.79963
C          4.50665       -1.46465       -1.24808
C          5.20908       -0.87482       -0.25354
C          6.14317        0.16907       -0.49963
N          6.89690        1.02582       -0.71826
C          5.12089       -1.31964        1.10011
N          5.03452       -1.68363        2.19508
C          3.60708       -2.63037       -1.13524
C          2.65878       -2.84948       -0.20723
C          1.62073       -3.82058       -0.33656
C          0.89664       -4.22531       -1.46254
C          0.02089       -5.28344       -1.16439
C          0.05967       -5.60476        0.17177
S          1.05314       -4.64545        1.09343
C         -0.74111       -6.74544        0.38285
C         -1.29076       -7.13342       -0.81779
C         -0.86966       -6.20591       -1.86614
C         -1.21941       -6.19362       -3.16983
C         -2.11559       -7.15587       -3.70958
N         -2.87181       -7.91938       -4.15343
C         -0.72466       -5.20445       -4.06629
N         -0.33091       -4.38266       -4.78780
C         -2.02604       -8.32847       -0.68744
C         -1.97037       -8.81984        0.61997
S         -1.07159       -7.74879        1.66019
C         -2.52011      -10.06304        1.16666
C         -2.95819      -10.23010        2.50054
C         -3.51909      -11.43555        2.99634
C         -3.70584      -12.58852        2.20224
C         -3.24802      -12.46108        0.86778
C         -2.66037      -11.22046        0.35887
N         -2.32529      -11.42743       -0.92406
O         -2.69836      -12.71916       -1.22332
N         -3.27239      -13.34614       -0.14020
C         -4.38726      -13.80642        2.63923
C         -4.17969      -15.13472        2.25375
C         -5.16850      -15.98448        2.79090
C         -6.04704      -15.28520        3.58335
S         -5.73495      -13.66612        3.73253
C         -7.01422      -16.17307        4.08378
C         -6.73702      -17.44355        3.64053
C         -5.58945      -17.38625        2.73216
C         -5.10962      -18.36456        1.94051
C         -5.72185      -19.64720        1.89611
N         -6.24269      -20.68292        1.85165
C         -4.01704      -18.14580        1.05793
N         -3.12504      -17.97014        0.33651
C         -7.61471      -18.39002        4.21694
C         -8.53463      -17.77833        5.07759
S         -8.40014      -16.03305        4.97132
C         -9.55594      -18.39187        5.86826
C        -10.00825      -17.92814        7.04515
C        -11.36608      -18.37909        7.49735
O        -11.94745      -19.40425        7.21510
C        -11.90293      -17.24600        8.28023
C        -10.92413      -16.24793        8.42526
C         -9.64566      -16.78693        7.89586
C         -8.40287      -16.45560        8.32711
C         -7.25183      -17.23047        7.98585
N         -6.31236      -17.86021        7.72560
C         -8.16334      -15.35832        9.19477
N         -7.98009      -14.44521        9.89303
C        -11.28608      -15.02125        8.96168
C        -12.60601      -14.83726        9.41136
C        -13.55342      -15.87830        9.31622
C        -13.20467      -17.09759        8.72836
Br       -15.33946      -15.70389        9.93873
Br       -13.02955      -13.12556       10.12462
H          5.27395        0.84694       -2.97341
H          3.81243       -3.37184       -5.24403
H          2.59659       -2.21688        0.67494
H          1.06696       -3.81467       -2.44911
H         -2.53715       -8.84781       -1.48802
H         -2.88884       -9.39367        3.19790
H         -3.82934      -11.44607        4.04255
H         -3.38349      -15.42968        1.57996
H         -7.57989      -19.46418        4.07295
H        -10.04952      -19.25507        5.41939
H        -10.58369      -14.19461        9.02173
H        -13.92461      -17.90103        8.60003
