90

C         -2.77038        1.29174       -0.79350
C         -1.66519        0.56487       -1.17129
C         -0.37612        0.92940       -0.70516
N          0.67821        0.13318       -1.00831
C          0.44911       -0.94923       -1.78392
C         -0.80437       -1.25783       -2.25642
N         -1.87912       -0.50748       -1.95332
C         -0.23372        2.09363        0.07781
C         -1.40555        2.78447        0.51573
C         -2.67819        2.34983        0.07717
N         -3.83283        2.89953        0.50562
C         -3.73826        3.87965        1.42280
C         -2.52034        4.33430        1.86023
N         -1.35939        3.82419        1.39223
C          1.12677        2.57606        0.52630
C          2.25139        2.84390       -0.30333
C          3.38449        3.44973        0.30273
C          3.49047        3.73318        1.65366
C          2.40805        3.42521        2.48923
C          1.28217        2.84206        1.91895
N          2.44290        3.70952        3.81004
C          3.56763        4.29840        4.27122
C          4.63962        4.57513        3.45070
N          4.61954        4.29740        2.13120
C          2.39748        2.59525       -1.77400
S          1.17478        3.11413       -2.87485
C          2.07152        2.68421       -4.31218
C          3.34686        2.30168       -3.92598
C          3.49280        2.12771       -2.49630
C          4.68925        1.65271       -1.91155
C          5.76896        1.45969       -2.81839
C          7.10154        1.13702       -2.26736
C          7.33925        0.19183       -1.35058
C          5.63120        1.67092       -4.23334
C          6.81307        1.52412       -5.16713
C          4.40644        2.08442       -4.82063
C          1.36980        2.78676       -5.56642
C          1.74324        2.14676       -6.69031
C          0.84981        1.92639       -7.84274
C          0.91539        2.51726       -9.13111
C         -0.01804        1.99469      -10.06788
C         -1.05633        1.11628       -9.75147
C         -1.11304        0.58012       -8.45607
C         -0.13634        0.94935       -7.55448
N         -2.10007       -0.25428       -8.06780
C         -3.06699       -0.49767       -8.97530
C         -3.02855        0.03998      -10.24367
N         -2.01320        0.82795      -10.66130
C          1.77571        3.72184       -9.52178
C          3.11027        3.88484       -9.08312
C          3.73746        5.15348       -9.21365
N          4.96924        5.42746       -8.75465
C          5.66790        4.39092       -8.26251
C          5.13410        3.12867       -8.23547
N          3.85766        2.86259       -8.59773
C          3.12741        6.16133       -9.90874
C          1.95997        5.93880      -10.58339
C          1.24600        4.73440      -10.38646
N          0.09547        4.58404      -11.09342
C         -0.24510        5.51092      -12.01583
C          0.48691        6.65485      -12.19009
N          1.57838        6.90135      -11.44631
H         -3.75257        0.98305       -1.14448
H          1.31095       -1.56547       -2.00997
H         -0.98726       -2.12257       -2.88321
H         -4.67226        4.27828        1.80152
H         -2.43520        5.10905        2.61353
H          4.23949        3.73544       -0.30968
H          0.46187        2.62562        2.60407
H          3.58019        4.54556        5.32607
H          5.54647        5.03255        3.82816
H          4.81816        1.49392       -0.84785
H          7.93654        1.71023       -2.66569
H          6.54943       -0.42170       -0.93053
H          8.35301        0.00686       -1.00781
H          7.33604        2.48200       -5.25809
H          6.48334        1.20619       -6.15996
H          7.51697        0.75765       -4.83145
H          4.33748        2.27294       -5.87732
H          0.40176        3.28748       -5.55900
H          2.63300        1.53771       -6.74561
H         -0.00276        2.32886      -11.10360
H         -0.16943        0.48470       -6.56871
H         -3.88262       -1.13063       -8.64601
H         -3.82143       -0.13778      -10.96052
H          6.66911        4.61389       -7.91417
H          5.72019        2.28178       -7.90589
H          3.63769        7.11438      -10.02522
H         -1.11552        5.28713      -12.62124
H          0.23189        7.39681      -12.93695
