90

C          1.56934        9.20256       -3.18810
C          1.67184        9.26330       -1.81538
C          1.26236        8.16206       -1.03191
N          1.39181        8.25445        0.31796
C          1.79745        9.42533        0.85238
C          2.16703       10.48575        0.06429
N          2.14370       10.40634       -1.28043
C          0.71218        7.04407       -1.69985
C          0.45034        7.07027       -3.07365
C          0.95114        8.15051       -3.82909
N          0.81110        8.21810       -5.16640
C          0.11516        7.22610       -5.75702
C         -0.43832        6.20106       -5.03090
N         -0.28555        6.11834       -3.69320
C          0.35297        5.84213       -0.90056
N         -0.17610        5.94517        0.30119
C         -0.25540        4.66902        0.74167
C          0.21607        3.75165       -0.26312
C          0.11253        2.37035        0.28478
O          0.39502        1.31232       -0.23113
C         -0.42552        2.60242        1.65210
C         -0.61803        4.01571        1.84016
N         -1.10182        4.26258        3.08561
C         -1.18917        3.06864        3.60186
C         -0.77512        1.93453        2.74612
C          0.59908        4.41811       -1.35044
C          1.09069        3.86210       -2.55573
S          2.72123        4.16864       -3.03933
C          2.58889        3.28997       -4.53107
C          1.34234        2.69797       -4.60510
C          0.47503        3.06079       -3.50809
C         -0.86906        2.66133       -3.43158
C         -1.29058        1.81932       -4.49903
C         -2.72163        1.45048       -4.58673
C         -3.52976        1.20435       -3.54698
C         -0.38593        1.38471       -5.54531
C         -0.84787        0.40097       -6.60126
C          0.95887        1.83808       -5.64328
C          3.74106        3.24186       -5.37228
C          3.72744        3.48117       -6.69763
C          5.02736        3.31660       -7.39218
N          5.99155        2.56965       -6.90113
C          6.99486        2.71854       -7.79240
C          6.59085        3.58191       -8.86857
C          7.74454        3.74866       -9.79289
O          7.82530        4.41381      -10.80179
C          8.79592        2.91359       -9.14966
C          8.25197        2.32570       -7.95339
N          9.18809        1.56516       -7.32960
C         10.22549        1.69489       -8.10781
C         10.06405        2.55183       -9.30393
C          5.32680        3.97473       -8.70767
C          4.54061        4.85857       -9.56905
C          3.88110        4.32273      -10.68918
C          3.16478        5.20021      -11.53855
N          2.52064        4.77043      -12.63953
C          2.62472        3.45928      -12.93063
C          3.32277        2.59214      -12.12152
N          3.93515        3.00038      -10.98586
C          3.13633        6.55020      -11.25945
C          3.83518        7.09129      -10.20111
C          4.56174        6.24144       -9.33332
N          5.28509        6.77653       -8.32088
C          5.29312        8.12355       -8.20775
C          4.56857        8.93338       -9.05230
N          3.81919        8.42716      -10.05123
H          1.92795       10.04235       -3.77916
H          1.79646        9.48429        1.93469
H          2.48159       11.43341        0.48573
H          0.00569        7.29028       -6.83268
H         -1.01275        5.40765       -5.49441
H         -1.54853        2.86593        4.62233
H         -0.76695        0.89061        2.98075
H         -1.54678        2.99127       -2.65329
H         -3.13745        1.38290       -5.58939
H         -3.18815        1.23919       -2.51863
H         -4.57095        0.94611       -3.71550
H         -1.37225       -0.44253       -6.13893
H          0.00070       -0.02367       -7.14934
H         -1.50503        0.89508       -7.32291
H          1.61850        1.51217       -6.43796
H          4.67870        3.00441       -4.87332
H          2.84681        3.75409       -7.26078
H         11.19545        1.20940       -7.92231
H         10.79291        2.79623      -10.04942
H          2.13536        3.13117      -13.84077
H          3.41816        1.54070      -12.36725
H          2.58288        7.21408      -11.92072
H          5.90898        8.53596       -7.41695
H          4.57533       10.01324       -8.96123
