116

C          2.24743       -0.73458        3.31685
C          0.88399       -0.65910        3.27650
C          0.23558        0.39263        2.57159
N         -1.10587        0.33650        2.51893
C         -1.76097       -0.57988        3.27126
C         -1.10104       -1.55523        3.96974
N          0.23687       -1.63062        3.94601
C          0.99798        1.43756        1.98117
C          2.43691        1.36691        2.13746
C          3.03228        0.24213        2.76524
N          4.35772        0.04644        2.88901
C          5.16484        0.99770        2.39631
C          4.64889        2.12473        1.82694
N          3.31861        2.31899        1.71018
C          0.32425        2.61073        1.19401
S          1.37223        3.52806        0.12718
C          0.30436        4.82041       -0.12641
C         -0.97082        4.33810        0.14072
C         -0.97577        3.13049        0.98195
C         -2.29284        2.75138        1.53515
O         -2.49694        2.39785        2.69096
C         -3.50323        3.12467        0.73733
C         -4.74975        2.54937        1.02632
C         -5.93374        3.12406        0.53193
C         -5.89192        4.25760       -0.29057
C         -7.13277        5.01851       -0.71177
C         -8.18756        5.17398        0.38135
C         -4.63722        4.74181       -0.68431
C         -3.45880        4.22323       -0.11811
C         -2.21587        5.01094       -0.23199
O         -2.29403        6.19233       -0.55029
C          0.76279        6.04928       -0.69516
N          1.72496        6.93809       -0.17775
C          2.56985        6.81454        0.99341
C          3.83870        6.00893        0.76238
C          1.77390        8.13291       -0.93524
O          2.47788        9.11884       -0.79735
C          0.73182        7.93159       -1.94430
C          0.22788        6.60400       -1.79400
C         -0.76232        6.38660       -2.86626
O         -1.28664        5.31787       -3.11901
N         -0.86216        7.65404       -3.47764
C         -1.87998        7.99791       -4.45817
C         -2.78393        6.87196       -4.94200
C          0.06753        8.55355       -2.92612
C          0.41076        9.88366       -3.37258
C         -0.21383       10.73332       -4.20570
C          0.43213       11.89656       -4.76498
S          2.00947       12.35929       -4.28017
C          2.10092       13.77217       -5.26858
C          1.05026       13.69317       -6.19835
C          0.02013       12.72619       -5.80271
C         -1.26202       12.61879       -6.52353
O         -2.10643       11.76325       -6.30555
C         -1.53610       13.65561       -7.55614
C         -2.77901       13.71491       -8.20324
C         -3.01776       14.67089       -9.20382
C         -2.02567       15.58947       -9.56704
C         -2.23371       16.59997      -10.66651
C         -1.76633       16.07877      -12.01830
C         -0.79039       15.51880       -8.92688
C         -0.54532       14.55345       -7.93628
C          0.83303       14.41330       -7.45138
O          1.67824       14.74145       -8.27340
C          3.28241       14.70486       -4.98152
C          4.04875       15.27553       -6.01784
C          5.08257       16.19849       -5.73181
N          5.77484       16.85287       -6.68600
C          5.45074       16.58106       -7.96235
C          4.50418       15.64247       -8.26607
N          3.85064       14.96130       -7.30132
C          5.43661       16.43803       -4.43091
C          4.79670       15.82182       -3.38796
C          3.67658       14.98405       -3.62914
N          3.05988       14.45908       -2.53422
C          3.60396       14.65428       -1.31090
C          4.71548       15.43483       -1.12972
N          5.30569       16.05628       -2.16388
H          2.72138       -1.57550        3.81747
H         -2.83870       -0.47756        3.31032
H         -1.61860       -2.29562        4.56681
H          6.23094        0.82182        2.48033
H          5.28233        2.90975        1.43119
H         -4.81795        1.71074        1.71690
H         -6.88788        2.71290        0.85735
H         -7.57258        4.54524       -1.59569
H         -6.83867        6.03522       -1.00742
H         -8.62287        4.21170        0.66665
H         -9.00482        5.81307        0.02967
H         -7.76364        5.63647        1.27990
H         -4.57493        5.60070       -1.35354
H          1.98806        6.44003        1.83987
H          2.89817        7.82608        1.27147
H          3.63872        4.93996        0.76257
H          4.55825        6.19405        1.56705
H          4.31543        6.25805       -0.19087
H         -1.38137        8.42952       -5.33176
H         -2.51935        8.76257       -4.00101
H         -2.21640        6.14410       -5.52965
H         -3.57827        7.27477       -5.57890
H         -3.27067        6.35232       -4.11034
H          1.38566       10.17412       -2.97977
H         -1.21138       10.51143       -4.56051
H         -3.56334       13.00251       -7.95209
H         -3.98067       14.68244       -9.71165
H         -1.68269       17.51826      -10.42309
H         -3.28997       16.88395      -10.71712
H         -0.70114       15.82219      -12.00324
H         -1.91687       16.84075      -12.78984
H         -2.32297       15.18252      -12.31115
H          0.01447       16.19128       -9.23070
H          5.97799       17.13450       -8.72879
H          4.20932       15.41445       -9.28364
H          6.26848       17.10775       -4.22444
H          3.12309       14.14399       -0.48438
H          5.16824       15.58279       -0.15636
