87

C         -5.04024        1.29199       -2.40559
S         -5.02760       -0.39250       -2.09500
C         -3.27160       -0.49328       -1.94976
C         -2.76858        0.78979       -2.13125
C         -3.76661        1.78268       -2.47980
C         -3.49594        3.12394       -2.78282
C         -2.10853        3.41990       -2.78580
C         -1.71116        4.76649       -3.12928
N         -1.40253        5.85174       -3.38438
C         -1.11217        2.45145       -2.42478
C          0.28907        2.76825       -2.53056
N          1.42429        2.96199       -2.64821
C         -1.42525        1.13536       -1.99356
C         -2.67641       -1.81695       -1.65368
S         -3.34308       -2.67150       -0.28741
C         -2.60098       -4.20768       -0.63061
C         -1.92193       -4.06243       -1.83856
C         -1.73065       -2.64424       -2.26608
C         -0.79379       -2.34121       -3.30488
C         -0.06304       -1.09063       -3.44934
C          0.13749       -0.43566       -4.59208
C         -0.17035       -3.46204       -3.90938
C         -0.44969       -4.79433       -3.56346
C         -1.33723       -5.13665       -2.53586
C         -2.74062       -5.33511        0.34034
C         -2.10485       -6.57258        0.44647
C         -2.51543       -7.35747        1.59774
N         -2.06267       -8.61651        1.86561
C         -1.20288       -9.05703        0.91718
C         -0.77550       -8.32389       -0.19457
C          0.14977       -8.89729       -1.24192
C          0.73918      -10.27070       -0.95275
N         -1.18716       -7.05179       -0.43782
C         -3.44384       -6.73291        2.39635
S         -3.83912       -5.20230        1.70287
C         -4.13840       -7.16854        3.57398
C         -3.63143       -8.04145        4.47249
C         -4.41868       -8.56968        5.56050
S         -5.61807       -7.53909        6.28435
C         -6.51590       -8.82535        6.97801
C         -5.78045       -9.99820        6.87411
C         -4.44391       -9.79546        6.23594
C         -3.46350      -10.83933        6.23933
C         -2.04639      -10.69812        5.87855
C         -1.06083      -11.38432        6.46286
C         -3.95677      -12.06428        6.77207
C         -5.25729      -12.25324        7.30195
C         -6.20868      -11.22700        7.38682
C         -7.77015       -8.51959        7.66609
S         -8.04796       -9.17895        9.25324
C         -9.54941       -8.39414        9.44763
C         -9.82484       -7.58943        8.37638
C         -8.81936       -7.66216        7.33669
C         -8.92395       -6.91091        6.15104
C        -10.07558       -6.07095        6.10737
C        -10.23412       -5.24589        4.93703
N        -10.35147       -4.58711        3.99048
C        -11.05396       -6.01246        7.15792
C        -12.18948       -5.13167        7.04516
N        -13.11550       -4.42859        6.97883
C        -10.96717       -6.78750        8.34027
H         -5.97940        1.81921       -2.52795
H         -4.25242        3.86855       -3.01091
H         -0.67864        0.46420       -1.60724
H          0.50026       -0.80491       -2.55856
H         -0.31230       -0.75400       -5.52560
H          0.80069        0.42400       -4.61631
H          0.62701       -3.29429       -4.63683
H          0.09675       -5.58894       -4.07036
H         -1.52627       -6.17957       -2.34980
H         -0.85914      -10.07192        1.09275
H          0.97345       -8.18822       -1.38759
H         -0.40049       -8.94782       -2.19061
H          1.28142      -10.27605       -0.00153
H          1.44029      -10.55796       -1.74223
H         -0.04382      -11.03572       -0.90881
H         -5.14888       -6.78457        3.68577
H         -2.62945       -8.41768        4.32313
H         -1.76824       -9.98375        5.11841
H         -1.22662      -12.10933        7.25500
H         -0.02613      -11.23133        6.17233
H         -3.29752      -12.93410        6.79418
H         -5.51519      -13.23956        7.68992
H         -7.18129      -11.42292        7.81784
H        -10.12479       -8.54594       10.35149
H         -8.21271       -6.93448        5.33384
H        -11.70574       -6.73889        9.13377
