69

C         -1.58105      -13.67709       -1.00664
S         -3.06484      -12.94403       -0.58911
C         -2.71191      -11.46347       -1.44114
C         -1.46966      -11.57815       -2.05481
C         -0.82890      -12.84793       -1.79321
C          0.42879      -13.22634       -2.26460
C          1.04195      -12.21871       -3.04969
C          2.34601      -12.51251       -3.58011
N          3.39761      -12.76054       -4.00263
C          0.42372      -10.94985       -3.32046
C          1.10449       -9.97770       -4.13459
N          1.61311       -9.17548       -4.80101
C         -0.85553      -10.57866       -2.82605
C         -3.72038      -10.37491       -1.39575
C         -3.94420       -9.50908       -2.48096
C         -4.88241       -8.45806       -2.43593
C         -5.59927       -8.35810       -1.24063
N         -5.44904       -9.17440       -0.17141
C         -4.52050      -10.15392       -0.27581
C         -5.14220       -7.57549       -3.60302
C         -4.14134       -7.19251       -4.53545
C         -4.43356       -6.46196       -5.70721
C         -5.77715       -6.09147       -5.84017
N         -6.76234       -6.36159       -4.94976
C         -6.42397       -7.09458       -3.86849
C         -3.39967       -6.01197       -6.70047
S         -3.59798       -4.40956       -7.30452
C         -2.21457       -4.38323       -8.34005
C         -1.46151       -5.54058       -8.09898
C         -2.22477       -6.53900       -7.23687
C         -1.71908       -7.84095       -6.99619
C         -2.44600       -8.92304       -6.41817
N         -2.96369       -9.84903       -5.95410
C         -0.41153       -8.09522       -7.45270
C          0.33368       -7.15795       -8.19078
C         -0.16216       -5.89367       -8.59698
C          0.71822       -5.14278       -9.42752
N          1.53967       -4.65704      -10.08913
C         -2.04467       -3.17416       -9.18270
S         -0.51616       -2.37263       -9.26055
C         -0.95389       -1.27568      -10.51382
C         -2.31991       -1.33819      -10.69007
C         -2.96002       -2.38342       -9.89141
C         -4.36078       -2.55768       -9.91547
C         -5.06011       -1.64932      -10.76103
C         -6.48168       -1.80115      -10.83577
N         -7.63796       -1.96197      -10.89635
C         -4.41419       -0.64296      -11.54440
C         -5.18174        0.26163      -12.36011
N         -5.76989        1.01789      -13.01427
C         -3.01316       -0.47582      -11.55629
C          0.08809       -0.48968      -11.09646
C         -0.04048        0.81384      -11.37599
H         -1.35132      -14.67376       -0.65275
H          0.89913      -14.18175       -2.05893
H         -1.28166       -9.60739       -3.04379
H         -3.41504       -9.68659       -3.41052
H         -6.35968       -7.59584       -1.08855
H         -4.45067      -10.77493        0.61421
H         -3.11304       -7.46841       -4.32140
H         -6.13639       -5.51983       -6.69244
H         -7.26394       -7.30120       -3.20831
H          0.05975       -9.05607       -7.24478
H          1.34413       -7.44999       -8.48767
H         -4.91604       -3.29078       -9.34565
H         -2.54725        0.27323      -12.18657
H          1.04706       -0.97037      -11.28926
H         -0.93785        1.38496      -11.16708
H          0.78806        1.36441      -11.81252
