100

C         -3.38908        1.43504        0.45738
S         -4.54842        0.19808        0.20143
C         -3.46088       -1.06794        0.68568
C         -2.24121       -0.51914        1.04820
C         -2.20244        0.91545        0.90330
C         -1.09791        1.71922        1.19319
C          0.00190        0.96992        1.68353
C          1.18708        1.71259        2.03249
N          2.12755        2.33081        2.31094
C         -0.02754       -0.46343        1.84484
C          1.11874       -1.14246        2.38820
N          2.02540       -1.70626        2.84054
C         -1.15436       -1.27021        1.51548
C         -3.93244       -2.40533        0.66237
N         -4.48145       -3.08954        1.74544
C         -4.73188       -2.56773        3.07195
C         -6.13586       -2.00036        3.21680
C         -4.90304       -4.38482        1.37817
O         -5.46195       -5.23119        2.04090
C         -4.53116       -4.46454       -0.04342
C         -3.94350       -3.19897       -0.41316
C         -3.60057       -3.27203       -1.84294
O         -3.08549       -2.40563       -2.51870
N         -4.01620       -4.57503       -2.19825
C         -3.94895       -5.06043       -3.56176
C         -5.21439       -4.72605       -4.33651
C         -4.55540       -5.26630       -1.11090
C         -5.03390       -6.62378       -1.20936
C         -4.54708       -7.62738       -0.46161
C         -4.97952       -9.00066       -0.49681
N         -4.84841       -9.87937       -1.56887
C         -4.31692       -9.55749       -2.86914
C         -5.31478      -11.18201       -1.24220
O         -5.36482      -12.18270       -1.92930
C         -5.73776      -11.04697        0.16936
C         -5.49529       -9.67298        0.53251
C         -5.87458       -9.48065        1.92700
O         -5.76694       -8.46801        2.58550
N         -6.34924      -10.75383        2.29194
C         -6.76611      -10.96924        3.64738
C         -6.23455      -11.68558        1.24130
C         -6.60893      -13.12424        1.34213
C         -5.64578      -14.07833        1.68872
C         -6.01522      -15.45110        1.81283
N         -5.05885      -16.36055        2.13021
C         -3.79542      -15.94235        2.33510
C         -3.45101      -14.62426        2.20517
N         -4.36448      -13.68308        1.89475
C         -7.36135      -15.84916        1.61474
C         -8.31383      -14.87547        1.25754
C         -7.92299      -13.51889        1.06974
N         -8.81967      -12.59985        0.63647
C        -10.08470      -13.00323        0.40749
C        -10.48197      -14.28956        0.65075
N         -9.61382      -15.21908        1.09014
C         -7.79766      -17.29432        1.83184
S         -7.22342      -18.09558        3.25789
C         -8.10882      -19.55600        3.01445
C         -8.87507      -19.42627        1.86937
C         -8.66551      -18.16169        1.16973
C         -9.33594      -17.85935       -0.03136
C        -10.28116      -18.84071       -0.44143
C        -11.06774      -18.52727       -1.60686
N        -11.69682      -18.24905       -2.53980
C        -10.49664      -20.07238        0.26037
C        -11.47826      -21.02361       -0.21446
N        -12.25065      -21.80665       -0.57325
C         -9.77742      -20.41852        1.43557
C         -7.96700      -20.65597        3.92327
C         -7.63448      -20.50512        5.21353
H         -3.65213        2.46823        0.27024
H         -1.07447        2.79746        1.07378
H         -1.15668       -2.34733        1.63727
H         -3.97895       -1.81637        3.32811
H         -4.61972       -3.39538        3.78279
H         -6.29517       -1.15348        2.54348
H         -6.30166       -1.65638        4.24260
H         -6.89478       -2.75551        2.98575
H         -3.77069       -6.14093       -3.56112
H         -3.09229       -4.58922       -4.05637
H         -6.09855       -5.16534       -3.86302
H         -5.14911       -5.10911       -5.35917
H         -5.36888       -3.64299       -4.38429
H         -5.81481       -6.81468       -1.94129
H         -3.79210       -7.41365        0.29575
H         -3.58295       -8.74919       -2.80720
H         -5.14421       -9.25858       -3.51914
H         -3.83318      -10.43837       -3.30175
H         -7.24323      -10.05423        4.02172
H         -5.87719      -11.14642        4.26015
H         -7.47234      -11.79460        3.73177
H         -3.07462      -16.70597        2.60437
H         -2.43063      -14.28426        2.33683
H        -10.76984      -12.25533        0.02781
H        -11.50095      -14.62271        0.49217
H         -9.19927      -16.94164       -0.59120
H         -9.95557      -21.35253        1.95766
H         -8.14361      -21.66311        3.55198
H         -7.45793      -19.53552        5.66933
H         -7.52952      -21.36590        5.86613
