64

C          1.70391       -7.16497        0.20036
S          0.61044       -6.19978       -0.67219
C         -0.26227       -5.67526        0.75851
C          0.41060       -6.14672        1.88470
C          1.54714       -6.98246        1.54471
C          2.44645       -7.54042        2.45380
C          2.17947       -7.16387        3.78926
C          3.12262       -7.60435        4.78965
N          3.89589       -7.95377        5.57465
C          1.04648       -6.35497        4.15792
C          0.87457       -5.97351        5.53702
N          0.75218       -5.62836        6.63431
C          0.09032       -5.85255        3.22157
C         -1.43628       -4.80829        0.50102
C         -1.76862       -3.54956        1.05099
N         -2.79304       -2.70543        0.63340
C         -3.65322       -3.04639       -0.36680
C         -3.44933       -4.29287       -0.95460
C         -2.36704       -5.16577       -0.51970
N         -2.45316       -6.28325       -1.26338
O         -3.49803       -6.10087       -2.14333
N         -4.11633       -4.88269       -1.95180
C         -1.05925       -2.90287        2.15171
O          0.28746       -3.09220        2.21139
C          0.75752       -2.40667        3.28812
C         -0.27366       -1.65650        3.82988
C         -1.47575       -2.08440        3.19493
C         -2.87633       -1.84116        3.56461
O         -3.71145       -2.73362        3.37814
C         -3.26590       -0.53469        4.25628
F         -2.23088        0.33313        4.43665
F         -4.21627        0.15319        3.56269
F         -3.78959       -0.75294        5.49730
C          2.12557       -2.69410        3.68914
C          3.21667       -3.19438        2.94062
N          4.43336       -3.57141        3.49989
C          4.71084       -3.50337        4.83351
C          3.69987       -2.99691        5.64188
C          2.42491       -2.59713        5.07706
N          1.65833       -2.17973        6.09936
O          2.41609       -2.31430        7.24504
N          3.67758       -2.79771        6.96260
C          3.27841       -3.38194        1.46104
S          4.24429       -4.73066        0.88185
C          4.02502       -4.34775       -0.76126
C          3.23696       -3.23946       -0.90146
C          2.81750       -2.66794        0.36285
C          2.07575       -1.47961        0.43054
C          1.73901       -0.95133       -0.84435
C          0.95836        0.25716       -0.84965
N          0.33091        1.23120       -0.82156
C          2.15182       -1.54597       -2.08485
C          1.77797       -0.93602       -3.33432
N          1.48466       -0.45866       -4.34812
C          2.93931       -2.71939       -2.16036
H          2.44781       -7.74880       -0.32653
H          3.30253       -8.14584        2.17067
H         -0.75103       -5.24962        3.53997
H         -4.43000       -2.34660       -0.64404
H         -0.19167       -0.99896        4.68667
H          5.68014       -3.83786        5.17551
H          4.49740       -4.94939       -1.52770
H          1.77273       -0.98252        1.34079
H          3.27547       -3.14718       -3.09656
