78

C         -0.58048       -7.67125        2.91062
S         -0.96865       -6.02501        3.16047
C         -1.48733       -5.78660        1.53318
C         -1.32167       -6.95795        0.80534
C         -0.78074       -8.02983        1.60449
C         -0.45196       -9.29886        1.12866
C         -0.64185       -9.41929       -0.27159
C         -0.19112      -10.64855       -0.87789
N          0.20760      -11.63372       -1.33353
C         -1.19517       -8.36645       -1.08669
C         -1.31850       -8.55913       -2.51127
N         -1.39323       -8.70164       -3.65722
C         -1.58741       -7.09944       -0.56811
C         -2.04910       -4.50974        1.12922
N         -2.98652       -4.48630        0.20408
C         -3.26813       -3.17174        0.04992
C         -2.44177       -2.36486        0.91028
C         -2.76624       -0.93385        0.65523
O         -2.25685        0.06031        1.12185
C         -3.84983       -1.02167       -0.36184
C         -4.08366       -2.40799       -0.66814
N         -5.06140       -2.52796       -1.60195
C         -5.39391       -1.28794       -1.83159
C         -4.65690       -0.24803       -1.07837
C         -1.65739       -3.14789        1.64651
C         -0.69724       -2.75756        2.60130
C         -0.83056       -2.53370        3.95826
C          0.42544       -2.23675        4.60787
N          0.55880       -2.03719        5.95227
C         -0.64426       -2.11489        6.58059
C         -1.87965       -2.35703        5.95243
C         -3.13342       -2.27763        6.77609
N         -2.02550       -2.60702        4.61587
C          1.48181       -2.10922        3.72453
S          0.94499       -2.50918        2.12893
C          2.82552       -1.71990        4.02731
C          3.61713       -1.05475        3.17000
C          4.92894       -0.58073        3.66083
N          5.61869       -1.14835        4.62203
C          6.71689       -0.35752        4.73393
C          6.67268        0.70662        3.76581
C          7.87493        1.56001        3.92909
O          8.21299        2.53044        3.28986
C          8.56915        0.90976        5.06822
C          7.80575       -0.23957        5.48612
N          8.41457       -0.84762        6.53572
C          9.47077       -0.10639        6.72604
C          9.65150        1.05126        5.82258
C          5.56314        0.62167        3.04312
C          5.13066        1.51903        2.05184
S          4.25983        2.94044        2.52704
C          4.17708        3.54979        0.92539
C          4.74732        2.67698        0.03645
C          5.29750        1.51090        0.67888
C          5.93745        0.47823       -0.01545
C          5.93787        0.68553       -1.42218
C          6.51079       -0.36072       -2.22336
N          6.96426       -1.23091       -2.84381
C          5.37766        1.85416       -2.05814
C          5.38963        1.96801       -3.49519
N          5.37224        2.07117       -4.64831
C          4.77312        2.91744       -1.33772
H         -0.20145       -8.26766        3.72977
H         -0.03817      -10.09436        1.73840
H         -2.00460       -6.32466       -1.20339
H         -6.17829       -0.98185       -2.54104
H         -4.77079        0.81609       -1.12918
H         -0.59708       -1.94954        7.65550
H         -3.10158       -2.99514        7.60151
H         -4.01504       -2.49121        6.16446
H         -3.24326       -1.26724        7.18545
H          3.16350       -1.89515        5.05070
H          3.32144       -0.79310        2.16321
H         10.21951       -0.29388        7.51024
H         10.43811        1.77858        5.81582
H          3.70331        4.50434        0.73515
H          6.37295       -0.40196        0.44440
H          4.36006        3.79797       -1.81778
