78

C         -0.38569       -1.56355        4.33884
C          0.06040       -1.18478        3.13288
C         -0.19412        0.20578        2.82885
C         -0.82788        0.88305        3.80327
S         -1.14310       -0.21709        5.13332
O         -2.56716       -0.46564        5.24117
O         -0.35407        0.16390        6.28812
C         -1.19626        2.27514        3.83295
C         -1.20126        3.08857        2.75234
C         -1.62671        4.43385        3.15525
C         -1.89837        4.33549        4.59629
C         -1.64307        3.07140        4.97253
C         -2.35248        5.33411        5.49139
N         -2.74528        6.13026        6.23591
C         -1.71672        5.50349        2.33396
C         -2.13597        6.85067        2.71911
C         -2.06208        7.67153        1.64623
C         -1.59187        6.86875        0.52489
C         -1.40309        5.59429        0.90485
C         -0.95901        4.58672        0.02190
N         -0.60073        3.75800       -0.70964
C         -2.39774        9.07435        1.67400
N         -3.00917        9.78898        0.63659
C         -3.48580        9.31905       -0.63642
C         -3.19817       11.14621        0.97454
O         -3.70373       12.03717        0.32312
C         -2.62358       11.23299        2.32431
C         -2.16022        9.92083        2.68532
C         -1.57253       10.00974        4.03421
O         -1.04339        9.11769        4.66364
N         -1.75885       11.36437        4.36543
C         -1.29497       11.92005        5.61369
C         -2.36266       12.07471        3.32641
C         -2.64819       13.47945        3.41301
C         -2.63117       14.32534        2.37124
C         -2.89693       15.73429        2.49060
C         -2.38250       16.66050        1.65356
C         -2.88364       17.98097        2.05009
C         -3.78658       17.72877        3.18567
C         -3.79083       16.40785        3.41870
C         -4.56697       18.64303        3.92802
N         -5.20389       19.39391        4.54251
C         -2.56072       19.15560        1.46985
C         -3.05044       20.46542        1.89523
C         -2.53104       21.42070        1.09644
C         -1.67169       20.75183        0.12394
C         -1.67941       19.42264        0.32730
C         -0.95626       18.50635       -0.47262
N         -0.36279       17.75838       -1.12944
C         -2.79193       22.82873        1.24881
C         -3.76060       23.43440        1.96250
C         -3.74088       24.87778        1.88859
C         -2.75626       25.36650        1.12184
S         -1.81866       24.05966        0.46578
O         -0.49134       24.08273        1.04779
O         -2.01248       24.00193       -0.96976
H         -0.31306       -2.53373        4.79796
H          0.57541       -1.83651        2.43944
H          0.13505        0.63159        1.88937
H         -0.93563        2.77399        1.75818
H         -1.74299        2.68127        5.97805
H         -2.44713        7.15925        3.70419
H         -1.40781        7.25997       -0.46457
H         -3.31976        8.25711       -0.79868
H         -2.98771        9.89257       -1.42581
H         -4.55985        9.51747       -0.70373
H         -0.85443       11.14081        6.24207
H         -2.13708       12.36750        6.14982
H         -0.53518       12.68034        5.41010
H         -2.85803       13.86306        4.40813
H         -2.39382       13.97328        1.36844
H         -1.70178       16.43424        0.84905
H         -4.37819       15.89372        4.16627
H         -3.70663       20.66257        2.72479
H         -1.12378       21.26773       -0.65417
H         -4.51520       22.92179        2.54673
H         -4.46736       25.48523        2.41080
H         -2.53208       26.39592        0.90814
