77

C          4.50678        0.91326       -0.15179
C          3.45417        0.29439       -0.70580
C          2.19696        0.96515       -0.46538
C          2.31050        2.08070        0.27324
S          3.97379        2.34471        0.68019
O          4.18436        2.16286        2.10282
O          4.48728        3.50752       -0.01742
C          1.24353        2.92891        0.62487
S          1.47748        4.29838        1.64777
C         -0.18093        4.70146        1.42545
N         -0.82790        3.82724        0.68223
N         -0.01591        2.80391        0.23869
C         -0.65725        5.90266        2.00485
C         -1.76061        6.51772        1.55178
C         -2.22286        7.77400        2.07944
N         -2.90904        8.72612        1.32361
C         -3.31906        8.63969       -0.06174
C         -2.29752        9.23012       -1.01801
C         -3.21577        9.87028        2.08424
O         -3.78760       10.88385        1.74663
C         -2.70572        9.52921        3.41955
C         -2.11624        8.22240        3.33818
C         -1.62343        7.86581        4.68057
O         -1.08302        6.83221        5.01907
N         -1.94938        9.00447        5.44431
C         -1.74758        9.01746        6.88126
C         -2.88563        8.34210        7.63303
C         -2.61018        9.97265        4.67442
C         -3.07090       11.22594        5.21250
C         -4.19415       11.86103        4.83390
C         -4.71652       13.06075        5.50320
C         -5.12986       14.20283        4.78764
C         -5.10424       14.40281        3.32744
O         -4.67513       13.60893        2.51705
S         -5.77737       15.94748        2.86176
C         -5.95783       16.43255        4.52224
O         -6.25480       17.56155        4.86453
C         -5.64561       15.32918        5.44064
C         -5.81563       15.35859        6.82840
C         -5.43569       14.21880        7.52205
C         -4.91025       13.11446        6.89238
C         -4.67229       12.12233        7.93870
O         -4.21966       11.00558        7.82332
O         -5.04851       12.69077        9.10899
C         -5.50664       13.94858        8.94741
O         -5.88299       14.69820        9.82502
C         -6.41153       16.49964        7.50987
C         -7.73028       16.55074        7.74596
C         -8.38598       17.68898        8.33299
C         -7.90012       18.58642        9.20820
C         -8.85224       19.60215        9.59782
C        -10.06199       19.44924        9.04032
S        -10.07214       18.04986        8.01301
O        -10.23841       18.46178        6.63383
O        -10.91063       17.02222        8.59858
H          5.54234        0.62365       -0.17923
H          3.51698       -0.61980       -1.28184
H          1.26105        0.58590       -0.86300
H         -0.06790        6.33273        2.80960
H         -2.31963        6.08209        0.72751
H         -4.25343        9.20511       -0.16728
H         -3.55128        7.60407       -0.32474
H         -2.01089       10.24461       -0.72154
H         -2.71539        9.27800       -2.02908
H         -1.39098        8.61873       -1.05154
H         -1.59422       10.04159        7.23204
H         -0.82278        8.46988        7.10001
H         -3.86210        8.71483        7.31310
H         -2.78142        8.51333        8.70968
H         -2.88800        7.26197        7.45956
H         -2.47155       11.62633        6.02554
H         -4.78923       11.48813        4.00100
H         -5.74196       17.31814        7.76221
H         -8.39041       15.73348        7.45630
H         -6.89287       18.57950        9.60256
H         -8.58853       20.40452       10.27226
H        -10.93292       20.06725        9.16414
