96

C         -4.40716        0.28159       -0.55288
S         -4.09898       -1.30960        0.01670
C         -4.11387        0.35363       -1.88017
C         -4.14935        1.35485       -2.90881
O         -4.49945        2.51566       -2.77452
N         -3.70226        0.70443       -4.04484
C         -3.56509        1.34610       -5.32495
C         -3.37842       -0.62966       -3.83289
O         -2.95630       -1.44758       -4.63151
C         -3.64805       -0.84810       -2.43075
C         -3.56355       -1.88809       -1.54212
C         -3.13577       -3.22254       -1.78588
C         -3.07758       -4.16511       -0.83493
C         -2.68024       -5.49560       -1.12732
S         -2.66800       -6.62617        0.14886
C         -2.19333       -7.93431       -0.86083
C         -2.00301       -7.48524       -2.15893
C         -2.28248       -6.09475       -2.30563
C         -1.56320       -8.30807       -3.25166
N         -1.18946       -8.94240       -4.14753
C         -2.00682       -9.24713       -0.33558
C         -2.27089       -9.59029        0.93624
C         -2.02453      -10.89017        1.48575
N         -1.75493      -11.12560        2.83948
C         -1.73136      -10.14731        3.91534
C         -0.64590       -9.08625        3.79557
C         -1.63629      -12.51034        3.10242
O         -1.44666      -13.09417        4.14966
C         -1.84564      -13.11400        1.77532
C         -2.07673      -12.05597        0.83678
C         -2.31831      -12.66130       -0.48530
O         -2.56553      -12.09636       -1.53019
N         -2.19977      -14.03391       -0.22115
C         -2.37650      -15.02318       -1.26229
C         -1.06932      -15.35430       -1.96275
C         -1.92972      -14.27261        1.12322
C         -1.80269      -15.58482        1.66484
C         -2.60531      -16.05824        2.62825
C         -2.46403      -17.38348        3.16244
C         -2.84509      -17.73692        4.40774
C         -2.55977      -19.16432        4.59284
C         -2.00282      -19.62187        3.30918
C         -1.96943      -18.56937        2.48175
C         -1.58313      -20.91226        2.91532
N         -1.23442      -21.96585        2.57256
C         -2.77627      -19.87193        5.72153
C         -2.44899      -21.28596        5.89474
C         -2.78865      -21.67111        7.14216
C         -3.36453      -20.51323        7.81660
C         -3.36088      -19.44360        6.99807
C         -3.86706      -18.17207        7.36760
N         -4.28623      -17.13884        7.67403
C         -2.58539      -22.99927        7.61712
S         -1.23400      -23.96331        7.06892
C         -3.28105      -23.74913        8.53214
C         -4.45291      -23.58245        9.35911
O         -5.18065      -22.60559        9.40544
N         -4.55435      -24.76342       10.07029
C         -5.58055      -25.04432       11.03871
C         -3.56672      -25.68307        9.77076
O         -3.41738      -26.79261       10.25474
C         -2.75194      -25.03665        8.77210
C         -1.62802      -25.33772        8.05022
C         -0.78574      -26.48142        7.99770
C         -1.24145      -27.71773        8.23026
H         -4.77913        1.05029        0.10968
H         -3.91964        2.37856       -5.28333
H         -4.13734        0.78479       -6.06905
H         -2.51040        1.32929       -5.61476
H         -2.85622       -3.45879       -2.80947
H         -3.35187       -3.94649        0.19471
H         -2.19773       -5.56711       -3.24826
H         -1.61449       -9.98684       -1.02854
H         -2.68441       -8.87401        1.63807
H         -1.58513      -10.67615        4.86465
H         -2.71989       -9.67748        3.96979
H          0.33862       -9.53548        3.63602
H         -0.60662       -8.48707        4.71214
H         -0.83871       -8.39443        2.97142
H         -3.07733      -14.61853       -2.00222
H         -2.83479      -15.92463       -0.84349
H         -0.61746      -14.45774       -2.40051
H         -1.24366      -16.07575       -2.76690
H         -0.34510      -15.78634       -1.26521
H         -1.00464      -16.19187        1.24699
H         -3.39609      -15.43817        3.04911
H         -3.25127      -17.05003        5.13245
H         -1.63526      -18.57592        1.45356
H         -2.00376      -21.93260        5.15815
H         -3.73945      -20.53263        8.83055
H         -6.22444      -24.17649       11.19367
H         -5.10742      -25.33390       11.98225
H         -6.17395      -25.89126       10.68099
H          0.26460      -26.34783        7.74655
H         -2.28041      -27.93673        8.45180
H         -0.56888      -28.56848        8.20053
