109

C          0.22767       -0.84124       -6.79218
S         -0.19056       -2.35612       -6.10417
C         -1.83996       -2.25384       -6.64097
C         -2.06674       -1.02390       -7.23861
C         -0.86238       -0.23197       -7.35688
C         -0.77050        0.99559       -8.01690
C         -2.01660        1.37423       -8.57727
N         -2.01358        2.57447       -9.39697
O         -1.54696        3.60353       -8.88616
O         -2.41889        2.45742      -10.55867
C         -3.21887        0.60788       -8.44979
N         -4.45783        1.12207       -9.00796
O         -4.80906        2.24753       -8.63557
O         -5.09293        0.36807       -9.75346
C         -3.30693       -0.63518       -7.76585
C         -2.66394       -3.41203       -6.54407
C         -2.92214       -4.20973       -7.61315
N         -2.37985       -4.06384       -8.94478
O         -3.08552       -4.47288       -9.87633
O         -1.24443       -3.59182       -9.08076
C         -3.75771       -5.32262       -7.26339
C         -3.98927       -5.27205       -5.94801
C         -3.35337       -4.08389       -5.38977
C         -3.40931       -3.75545       -4.07721
C         -2.80326       -2.55750       -3.49348
C         -2.92663       -2.63709       -2.15991
C         -3.63105       -3.85823       -1.83445
N         -3.88628       -4.27346       -0.47223
O         -3.99938       -3.37243        0.37031
O         -3.93067       -5.48464       -0.21741
C         -3.99789       -4.55232       -2.93536
C         -4.75358       -5.80154       -2.93840
C         -6.00841       -5.95950       -3.40318
C         -6.66960       -7.24059       -3.52511
N         -7.17203       -7.98100       -2.45379
C         -7.25954       -7.54570       -1.07457
C         -8.56965       -6.82173       -0.80120
C         -7.79859       -9.17399       -2.88602
O         -8.37599      -10.02721       -2.24342
C         -7.60913       -9.13956       -4.34745
C         -6.92235       -7.90880       -4.65920
C         -6.79423       -7.84021       -6.12250
O         -6.31873       -6.93901       -6.78151
N         -7.38382       -9.03545       -6.55846
C         -7.39043       -9.39901       -7.96531
C         -6.19899      -10.26880       -8.33707
C         -7.87842       -9.78725       -5.48694
C         -8.67752      -10.96285       -5.70599
C         -8.87622      -11.99367       -4.86964
C         -9.78421      -13.05566       -5.18929
S        -11.19015      -12.78936       -6.14967
C        -11.65662      -14.43874       -6.12193
C        -11.00688      -15.06040       -5.05993
C         -9.74691      -14.38575       -4.79185
C         -8.61090      -15.09454       -4.08016
N         -7.28596      -14.92066       -4.81622
O         -6.33601      -14.48282       -4.15708
O         -7.23991      -15.25033       -6.01166
C         -8.86900      -16.61361       -3.99584
C        -10.25961      -16.88663       -3.42567
C        -11.38500      -16.33613       -4.32917
N        -12.56794      -16.09467       -3.38317
O        -13.37009      -17.03175       -3.25281
O        -12.61149      -15.02436       -2.76546
C        -12.66055      -14.93751       -7.04942
S        -13.97162      -15.91330       -6.48583
C        -14.61095      -16.17328       -8.04616
C        -13.90013      -15.48170       -8.98858
C        -12.76678      -14.76695       -8.42811
C        -11.88529      -14.01111       -9.22489
C        -12.27798      -13.98588      -10.59061
N        -11.42766      -13.22677      -11.49137
O        -11.23632      -12.03708      -11.21352
O        -10.92114      -13.84828      -12.43199
C        -13.40720      -14.68389      -11.11404
N        -13.77097      -14.51920      -12.50989
O        -13.99824      -13.36491      -12.88991
O        -13.88239      -15.54759      -13.18626
C        -14.26804      -15.49359      -10.33560
H          1.25453       -0.50134       -6.75428
H          0.14041        1.57173       -8.13635
H         -4.22918       -1.19956       -7.68889
H         -4.13697       -6.06682       -7.94783
H         -4.58383       -5.99792       -5.43818
H         -2.33857       -1.73903       -4.01692
H         -2.57839       -1.91579       -1.43469
H         -4.21814       -6.66361       -2.53657
H         -6.54549       -5.11273       -3.82810
H         -6.40633       -6.91013       -0.82292
H         -7.20643       -8.43323       -0.43322
H         -8.66556       -5.92907       -1.42786
H         -8.62586       -6.51441        0.24727
H         -9.42805       -7.46862       -1.01273
H         -7.34884       -8.47960       -8.56052
H         -8.32812       -9.89521       -8.22861
H         -5.25613       -9.74758       -8.14016
H         -6.23163      -10.52137       -9.40177
H         -6.19143      -11.20212       -7.76495
H         -9.19795      -10.96545       -6.65964
H         -8.36312      -12.03243       -3.91180
H         -8.47833      -14.67208       -3.07692
H         -8.10850      -17.09169       -3.36695
H         -8.79956      -17.08914       -4.98459
H        -10.30485      -16.45131       -2.41767
H        -10.40395      -17.96638       -3.29267
H        -11.69432      -17.10819       -5.04160
H        -15.48347      -16.80080       -8.17459
H        -11.00388      -13.48769       -8.87576
H        -15.12159      -16.02269      -10.74380
