76

C        -14.39654       -7.52764       -3.53480
S        -12.69219       -7.48545       -3.47232
C        -12.59620       -5.81602       -3.96575
C        -13.88281       -5.31865       -4.15043
C        -14.90623       -6.30730       -3.88452
C        -16.27999       -6.08859       -3.96313
C        -16.58146       -4.74864       -4.31941
N        -18.00286       -4.47043       -4.40031
O        -18.59470       -4.32217       -3.32906
O        -18.51019       -4.52396       -5.52676
C        -15.60356       -3.73806       -4.59377
N        -15.99128       -2.34650       -4.89632
O        -17.18752       -2.05346       -4.93547
O        -15.07518       -1.53037       -5.07137
C        -14.19646       -4.00393       -4.54286
C        -11.24666       -5.20388       -4.05571
C        -10.11685       -5.92467       -4.49850
C         -8.82520       -5.35797       -4.53171
C         -8.74824       -4.02647       -4.12509
N         -9.79746       -3.28270       -3.70087
C        -11.00562       -3.89287       -3.65888
C         -7.62004       -6.13502       -4.90497
C         -6.52250       -5.57252       -5.60044
C         -5.32622       -6.28391       -5.86138
C         -5.32224       -7.58592       -5.36079
N         -6.35656       -8.19805       -4.73100
C         -7.46840       -7.46457       -4.52165
C         -4.10040       -5.64460       -6.44854
S         -4.11368       -3.94032       -6.77892
C         -2.39569       -3.77913       -6.79781
C         -1.83939       -5.02771       -6.54252
C         -2.82420       -6.09735       -6.78717
C         -2.42017       -7.42273       -7.06945
C         -3.28633       -8.40561       -7.63408
N         -3.96504       -9.22179       -8.10202
C         -1.02876       -7.64882       -6.96274
C         -0.10375       -6.64979       -6.55249
C         -0.46877       -5.30408       -6.33381
C          0.43697       -4.36631       -5.75081
N          1.18061       -3.64756       -5.22445
C         -1.78015       -2.51347       -7.21728
S         -0.46455       -2.56483       -8.35524
C         -0.27254       -0.84752       -8.44083
C         -1.30899       -0.24964       -7.75244
C         -2.13900       -1.18759       -7.01476
C         -3.22762       -0.76605       -6.23048
C         -3.50195        0.62965       -6.28774
C         -4.68366        1.12693       -5.54971
C         -5.86619        0.49682       -5.50760
C         -2.66655        1.55456       -7.01847
C         -2.98009        3.03620       -7.06047
C         -1.54718        1.13191       -7.77989
C          0.82316       -0.34755       -9.21494
C          1.49369        0.76813       -8.90201
H        -14.92426       -8.44216       -3.29543
H        -17.04006       -6.83641       -3.76257
H        -13.45673       -3.24817       -4.78092
H        -10.24049       -6.95775       -4.81903
H         -7.79973       -3.49509       -4.09396
H        -11.79038       -3.26007       -3.25479
H         -6.60902       -4.53417       -5.91195
H         -4.44872       -8.22465       -5.39531
H         -8.24487       -7.99713       -3.97763
H         -0.63520       -8.64312       -7.19016
H          0.94046       -6.94159       -6.41967
H         -3.83969       -1.42820       -5.63473
H         -4.57579        2.07367       -5.02923
H         -6.04973       -0.44002       -6.02343
H         -6.69615        0.92461       -4.95350
H         -3.15487        3.43355       -6.05789
H         -3.85401        3.21728       -7.69429
H         -2.13994        3.60566       -7.47316
H         -0.96386        1.83933       -8.35873
H          1.15935       -0.92826      -10.07249
H          1.26386        1.37722       -8.03249
H          2.32539        1.09727       -9.51563
