62

C         -6.38866        2.58912        6.24285
S         -7.32917        3.96602        6.71592
C         -8.12935        4.05885        5.18153
C         -7.67608        3.06475        4.36093
C         -6.70469        2.25464        4.96232
C         -6.31799        1.27383        4.02316
C         -7.00192        1.42927        2.86166
C         -7.93622        2.61720        3.01772
O         -8.71961        3.08209        2.21227
C         -6.86562        0.62533        1.70414
S         -6.42637       -1.07070        1.83099
C         -6.46110       -1.32953        0.13168
C         -6.80495       -0.17227       -0.49817
C         -7.02837        0.90437        0.37068
C         -7.35568        2.02571       -0.43667
C         -7.35622        1.69949       -1.75371
C         -6.98862        0.22709       -1.86320
O         -6.85936       -0.46037       -2.85819
C         -7.65159        2.57101       -2.86469
C         -7.63348        2.18084       -4.14989
C         -7.92314        3.03658       -5.24607
S         -9.03315        4.37697       -5.15188
C         -8.82556        4.80597       -6.81038
C         -7.95429        3.94372       -7.40737
C         -7.47044        2.95831       -6.53658
C         -6.58613        2.13140       -7.27465
C         -6.47266        2.56852       -8.55127
C         -7.38900        3.77211       -8.71490
O         -7.58398        4.42633       -9.71847
C         -5.71228        2.02883       -9.64593
C         -4.55280        1.36512       -9.52204
C         -3.83814        0.88452      -10.65412
S         -2.85272       -0.55112      -10.49235
C         -2.35923       -0.53277      -12.14550
C         -2.90703        0.54424      -12.77776
C         -3.71524        1.32883      -11.94504
C         -4.18143        2.41441      -12.72713
C         -3.72291        2.33790      -14.00363
C         -2.85873        1.10066      -14.10226
O         -2.25959        0.67309      -15.06964
C         -4.00510        3.28003      -15.08204
C         -3.50548        3.14601      -16.37553
N         -3.77906        4.02577      -17.37490
C         -4.57939        5.05752      -17.03623
C         -5.08321        5.20659      -15.75845
N         -4.80973        4.33054      -14.76263
H         -5.68670        2.13427        6.92821
H         -8.86935        4.82243        4.98377
H         -5.56857        0.51987        4.22324
H         -6.23290       -2.29373       -0.30304
H         -7.58013        3.00805       -0.04088
H         -7.89321        3.59968       -2.60376
H         -7.36098        1.16362       -4.41649
H         -9.34888        5.64954       -7.23798
H         -6.08129        1.26802       -6.86118
H         -6.14761        2.21716      -10.62576
H         -4.13334        1.16457       -8.53876
H         -1.69980       -1.29226      -12.54339
H         -4.81469        3.20946      -12.35258
H         -2.86240        2.32485      -16.67283
H         -4.80615        5.76516      -17.82536
H         -5.72588        6.03949      -15.49628
