71

C         -1.71769        1.17669        5.42888
S         -1.71869        2.85566        5.02788
C         -2.09834        2.58399        3.34042
C         -2.21194        1.24381        3.17280
C         -1.99982        0.49479        4.30729
O         -2.09159       -0.85694        4.19977
C         -2.39257       -0.94902        2.85537
N         -2.56473       -2.28582        2.36526
O         -2.85589       -2.39521        1.16539
O         -2.40909       -3.22042        3.16035
C         -2.48277        0.27693        2.18083
C         -2.24687        3.64416        2.38038
S         -1.95940        5.29675        2.73716
C         -2.38776        5.66765        1.10927
N         -2.71060        4.60053        0.40348
N         -2.61218        3.42916        1.13279
C         -2.37592        7.02755        0.70360
C         -3.17781        7.46527       -0.27904
C         -3.26416        8.83984       -0.70275
N         -3.66243        9.21448       -1.99185
C         -4.00122        8.33214       -3.08964
C         -2.78855        7.95099       -3.92044
C         -3.67323       10.61402       -2.14729
O         -3.94122       11.28119       -3.12582
C         -3.30160       11.09824       -0.80471
C         -3.06519        9.94659        0.02481
C         -2.70370       10.43906        1.36947
O         -2.43253        9.77447        2.34990
N         -2.76052       11.83841        1.22182
C         -2.50492       12.73285        2.33517
C         -1.03354       13.09279        2.46809
C         -3.11889       12.20514       -0.07898
C         -3.22995       13.57422       -0.50695
C         -4.10004       13.99377       -1.43950
C         -4.22526       15.37137       -1.90999
C         -4.62490       15.64531       -3.20612
N         -4.80845       16.88847       -3.69692
C         -4.57604       17.89580       -2.83879
N         -4.20594       17.75466       -1.55400
C         -4.04445       16.48913       -1.11974
C         -4.74062       19.24282       -3.33146
S         -5.85992       19.69926       -4.57499
C         -5.43204       21.38583       -4.49782
C         -4.47256       21.52059       -3.55812
C         -4.09182       20.35404       -2.93181
O         -3.10275       20.45089       -1.99647
C         -2.88302       21.80945       -2.05413
N         -1.89387       22.28725       -1.14708
O         -2.22504       23.23658       -0.42554
O         -0.78211       21.74638       -1.18784
C         -3.67531       22.51396       -2.96552
H         -1.51944        0.79619        6.42020
H         -2.70772        0.42124        1.13230
H         -1.72481        7.70585        1.24404
H         -3.82903        6.75226       -0.78041
H         -4.71987        8.85036       -3.73597
H         -4.50962        7.44053       -2.71183
H         -2.33072        8.83653       -4.37343
H         -3.08263        7.27036       -4.72558
H         -2.02814        7.45370       -3.31060
H         -2.82641       12.23384        3.25730
H         -3.11607       13.63549        2.23231
H         -0.43190       12.20697        2.69690
H         -0.89289       13.81563        3.27838
H         -0.64372       13.53325        1.54522
H         -2.54712       14.27888       -0.03803
H         -4.77052       13.28999       -1.92934
H         -4.81281       14.84596       -3.92016
H         -3.76752       16.40922       -0.07274
H         -5.90717       22.11503       -5.13868
H         -3.64771       23.57709       -3.15508
