91

C          2.00656        1.40212        2.85245
S          1.42365        1.64232        1.25530
C          0.64903        3.16293        1.59497
C          0.86225        3.40834        2.91928
C          1.59681        2.44898        3.58289
O          1.83112        2.62214        4.90984
C          1.15365        3.80934        5.09695
N          1.14157        4.29009        6.44835
O          0.49338        5.32331        6.65602
O          1.76210        3.63994        7.29944
C          0.56032        4.34036        3.94248
C         -0.07081        3.93774        0.60340
S          0.04501        5.65608        0.66280
C         -1.16024        5.87624       -0.52655
C         -1.71997        4.66318       -0.88702
C         -0.84713        3.56182       -0.49537
C         -0.98423        2.20114       -1.16829
N          0.32197        1.72094       -1.80396
O          0.91937        2.50358       -2.55766
O          0.65130        0.54758       -1.58435
C         -1.98403        2.22638       -2.35249
C         -3.26320        2.97699       -2.00641
C         -2.97448        4.46308       -1.72061
N         -4.21311        5.01218       -1.01132
O         -4.82711        5.92450       -1.58050
O         -4.53705        4.49558        0.06843
C         -1.44040        7.18969       -0.98581
C         -2.38306        7.93852       -0.40010
C         -2.66721        9.29545       -0.76979
N         -3.09182        9.72539       -2.03252
C         -3.37893        8.90108       -3.19028
C         -2.54486        9.30032       -4.40081
C         -3.36129       11.11081       -2.04095
O         -3.79161       11.82421       -2.92414
C         -3.01951       11.51394       -0.66882
C         -2.60237       10.34711        0.05300
C         -2.28154       10.76161        1.43140
O         -1.90845       10.05075        2.34077
N         -2.54063       12.14860        1.40727
C         -2.47027       12.97602        2.59699
C         -1.09135       13.57057        2.82646
C         -2.97486       12.56160        0.15042
C         -3.31869       13.91704       -0.14897
C         -4.51453       14.27903       -0.63764
C         -4.80265       15.63557       -0.93448
S         -6.00232       16.00732       -2.10369
C         -5.76414       17.69886       -1.94192
C         -4.80456       17.97390       -0.98781
C         -4.26272       16.79323       -0.40595
C         -4.40896       19.29712       -0.61110
N         -4.06282       20.36178       -0.29165
C         -6.56921       18.58445       -2.70330
C         -6.16732       19.01529       -3.90953
C         -6.95371       19.90796       -4.67730
S         -6.93195       19.95587       -6.41387
C         -8.11212       21.23466       -6.50779
C         -8.44093       21.58218       -5.24609
C         -7.81121       20.86250       -4.25649
O         -8.11079       21.19188       -2.96720
C         -9.01601       22.20795       -3.19977
N         -9.56906       22.81087       -2.02189
O        -10.37523       23.73204       -2.20735
O         -9.21374       22.36678       -0.92327
C         -9.25874       22.48955       -4.55060
H          2.58582        0.54529        3.16494
H         -0.01598        5.25439        3.88886
H         -1.28949        1.45196       -0.42988
H         -2.22331        1.19799       -2.65006
H         -1.54333        2.70561       -3.23848
H         -3.72854        2.47317       -1.14938
H         -3.97863        2.89768       -2.83466
H         -2.88447        5.01721       -2.66311
H         -0.83597        7.58420       -1.79994
H         -2.93691        7.56082        0.45988
H         -4.44273        9.01355       -3.43011
H         -3.20368        7.84670       -2.96539
H         -2.85954       10.27170       -4.79628
H         -2.66015        8.56586       -5.20356
H         -1.48311        9.37322       -4.14422
H         -2.73627       12.35390        3.45884
H         -3.21955       13.77281        2.53371
H         -0.33788       12.78635        2.94957
H         -1.09540       14.18393        3.73384
H         -0.78475       14.20546        1.98926
H         -2.52794       14.64449        0.01333
H         -5.28158       13.53133       -0.82741
H         -3.51338       16.79619        0.37630
H         -7.51235       18.88965       -2.25907
H         -5.23088       18.66166       -4.33780
H         -8.44703       21.62045       -7.46046
H         -9.92833       23.24524       -4.93738
