82

C          4.70083       -0.88494        7.49740
S          4.23989       -2.36789        8.19749
C          4.81139       -3.23641        6.84357
C          5.35503       -2.42824        5.86110
C          5.88133       -2.96439        4.56779
C          5.29223       -1.04549        6.25881
C          5.70874        0.10918        5.52657
C          6.76573        0.19761        4.70520
C          7.09268        1.40450        3.98458
C          7.15082        2.61684        4.55619
C          7.43695        3.79869        3.81630
S          6.57939        5.23133        4.25432
C          7.38269        6.22929        3.11622
C          8.19110        5.44933        2.30718
C          8.28142        4.07601        2.75974
C          9.13664        3.12535        2.18410
C          9.85895        3.61125        1.06435
C         10.73789        2.67659        0.41706
N         11.44017        1.89854       -0.07485
C          9.73022        4.95638        0.58618
C         10.46699        5.36899       -0.57417
N         11.05060        5.72349       -1.51256
C          8.91009        5.93662        1.20486
C          7.13150        7.65561        3.04066
O          6.99793        8.25157        1.80744
C          6.82609        9.60305        1.93671
C          6.85503        9.88020        3.29185
C          7.04917        8.65482        4.01324
C          7.14473        8.51822        5.46394
O          6.81683        7.53457        6.10569
O          7.62577        9.61953        6.10117
C          6.64598       10.50500        0.84850
C          6.63251       10.07423       -0.42270
C          6.39861       10.98188       -1.50075
S          7.70636       11.83697       -2.19971
C          6.76500       12.50952       -3.53319
C          5.42485       12.23968       -3.27413
C          5.23119       11.33736       -2.13961
C          3.98675       10.84503       -1.71905
C          2.89792       11.37732       -2.44587
C          1.57999       10.95500       -2.04696
N          0.52954       10.59448       -1.71238
C          3.06755       12.29040       -3.53900
C          1.90969       12.87510       -4.16605
N          0.99995       13.39454       -4.65402
C          4.33799       12.69992       -4.03480
C          7.50407       13.15034       -4.64776
S          8.99497       12.35125       -5.09964
C          9.37175       13.47600       -6.28650
C          8.38777       14.41955       -6.47254
C          8.54356       15.44353       -7.55803
C          7.29347       14.25708       -5.49983
C          6.15137       15.15012       -5.41073
C          5.69148       15.98150       -6.36491
C          4.52322       16.82781       -6.29903
C          3.30967       16.41563       -5.92008
H          4.52026        0.03908        8.03167
H          4.70802       -4.31244        6.82614
H          5.74754       -4.04960        4.50466
H          6.95319       -2.77045        4.46902
H          5.35619       -2.51313        3.72013
H          5.11150        1.00592        5.68659
H          7.41268       -0.64805        4.51320
H          7.28903        1.24906        2.92845
H          6.91463        2.72965        5.61278
H          9.26939        2.11092        2.53882
H          8.85326        6.95349        0.83233
H          6.72495       10.86774        3.71544
H          7.96732       10.30726        5.50410
H          6.50623       11.55849        1.07594
H          6.76361        9.02214       -0.66796
H          3.85020       10.14113       -0.90363
H          4.41484       13.33172       -4.90736
H         10.30093       13.38511       -6.83410
H          9.51852       15.35662       -8.05222
H          8.47354       16.45977       -7.16036
H          7.79527       15.28785       -8.34196
H          5.60120       15.13584       -4.47370
H          6.19319       16.09831       -7.31586
H          4.63633       17.83264       -6.70668
H          3.12095       15.40533       -5.58019
H          2.45532       17.08324       -5.98187
