66

C         -0.67797        4.54786        2.65376
S          0.61690        4.74233        1.55959
C          0.85354        3.03596        1.39758
C         -0.04805        2.34862        2.20656
C         -0.92704        3.22528        2.91037
O         -1.92072        2.88012        3.75630
C         -0.10850        0.92405        2.33975
N         -0.21146       -0.22400        2.47448
C          1.87936        2.52482        0.49882
S          1.70882        1.00747       -0.28615
C          3.24900        1.08977       -1.01059
C          3.71672       -0.06471       -1.74657
O          4.79313       -0.14055       -2.33570
C          3.84611        2.31381       -0.78678
C          3.06561        3.12768        0.10462
C          5.10356        2.70127       -1.32948
N          5.25225        3.43573       -2.51007
C          4.18543        3.86025       -3.39200
C          3.84851        2.82910       -4.45829
C          6.61004        3.69752       -2.79433
O          7.10907        4.30973       -3.71675
C          7.30999        3.07279       -1.65806
C          6.31546        2.46669       -0.81868
C          6.99149        1.82092        0.30939
O          6.44248        1.22105        1.21032
N          8.35583        2.10399        0.06085
C          9.46150        1.72590        0.93680
C          9.08737        0.94102        2.18600
C          8.51231        2.85634       -1.11553
C          9.78903        3.26774       -1.63794
C         10.10267        4.52738       -1.99094
C         11.38477        4.93126       -2.59777
C         11.44151        6.05574       -3.43803
C         12.64692        6.45899       -4.04394
C         13.77065        5.69375       -3.73313
N         13.77273        4.61568       -2.90966
C         12.58463        4.26703       -2.36514
C         12.73753        7.61347       -4.96717
S         11.38773        8.01682       -5.96733
C         12.19979        9.33348       -6.68713
C         13.47963        9.47779       -6.20923
C         13.79005        8.48208       -5.22847
O         14.97061        8.36628       -4.57941
C         14.36218       10.50642       -6.66916
N         15.09969       11.32951       -7.01730
H         -1.19670        5.40591        3.06067
H         -2.00465        1.91414        3.85283
H          3.03311       -0.93319       -1.76592
H          3.38330        4.10535        0.45175
H          4.50230        4.78385       -3.89017
H          3.29832        4.10211       -2.79904
H          4.67583        2.70662       -5.16504
H          2.96634        3.14864       -5.02259
H          3.63395        1.84917       -4.02404
H          9.96914        2.64800        1.24159
H         10.16797        1.13171        0.34634
H          8.38571        1.50144        2.81328
H          9.97633        0.73570        2.78947
H          8.63056       -0.01991        1.92626
H         10.50274        2.45849       -1.77725
H          9.37129        5.32603       -1.86995
H         10.52582        6.61152       -3.62852
H         14.74584        5.91701       -4.15760
H         12.63975        3.40317       -1.70935
H         11.69250        9.93550       -7.43012
H         15.60934        9.04916       -4.85467
