112

N         -2.40021       -5.78383       -6.19242
C         -1.73661       -6.68824       -5.39899
C         -2.40944       -7.99621       -5.14848
C         -0.50569       -6.35663       -4.98842
C         -0.28441       -5.13257       -5.68353
C         -1.54296       -4.74827       -6.36118
O         -1.70434       -3.67974       -6.93350
C          1.00146       -4.78278       -5.59414
C          1.56252       -3.64479       -6.37100
N          1.67125       -5.72459       -4.77571
C          0.73666       -6.67853       -4.25616
O          0.88232       -7.48005       -3.35026
C          3.04943       -5.82231       -4.69330
C          3.85857       -6.90724       -4.89024
N          3.50244       -8.27310       -5.25517
O          4.42294       -8.96889       -5.72139
O          2.36195       -8.69847       -5.09622
C          5.23201       -6.48418       -5.13392
C          5.28657       -5.15132       -5.11713
C          4.00715       -4.65886       -4.60945
C          3.85492       -3.41039       -4.10378
C          2.65392       -2.87373       -3.46059
C          2.79796       -1.53894       -3.36729
C          4.11794       -1.18965       -3.84454
N          4.66289        0.15169       -3.83894
O          4.24869        0.91549       -2.95400
O          5.47327        0.46997       -4.71760
C          4.83386       -2.28240       -4.17031
C          6.25711       -2.29665       -4.41165
C          7.10773       -2.99965       -3.64847
C          8.52046       -3.08829       -3.87955
N          9.43323       -3.33929       -2.85770
C          9.14062       -3.52798       -1.44960
C          8.96593       -4.99510       -1.08470
C         10.74289       -3.44278       -3.35116
O         11.76376       -3.66749       -2.73742
C         10.58205       -3.23606       -4.80239
C          9.17665       -3.03428       -5.04557
C          8.98954       -2.87505       -6.49851
O          7.94632       -2.70200       -7.09391
N         10.30032       -2.99894       -6.99719
C         10.58288       -2.86171       -8.41367
C         10.78722       -1.41398       -8.83069
C         11.22810       -3.20124       -5.97194
C         12.62871       -3.40834       -6.22796
C         13.61632       -2.69904       -5.65814
C         15.03453       -2.88438       -5.91837
C         15.67222       -2.75830       -7.10803
N         15.03084       -2.43895       -8.36151
O         15.52576       -2.94408       -9.37847
O         14.07292       -1.65895       -8.35833
C         17.10703       -2.80769       -6.97012
C         17.41206       -2.92902       -5.66959
C         16.15691       -3.05756       -4.91946
C         16.04170       -3.33258       -3.59821
C         14.76859       -3.67685       -2.97643
C         14.95014       -3.81915       -1.65886
C         16.35263       -3.63712       -1.38265
N         16.88125       -3.80099       -0.04664
O         16.12764       -3.49608        0.88817
O         18.02605       -4.24840        0.09719
C         17.06761       -3.36413       -2.50191
C         18.49873       -3.16405       -2.61785
C         19.24352       -2.40139       -1.80432
N         20.60100       -2.21822       -1.91950
C         21.33028       -1.64087       -0.88599
C         20.85155       -1.29046        0.46909
C         22.66578       -1.63439       -1.34761
C         22.76486       -2.15089       -2.55933
C         21.44539       -2.56387       -3.00076
O         21.19586       -3.06372       -4.08228
C         24.14405       -2.04340       -2.91910
C         24.67130       -2.49845       -4.23468
N         24.86255       -1.52249       -1.96882
C         24.00028       -1.22729       -0.92787
O         24.27067       -0.71571        0.14698
H         -3.40847       -7.85466       -4.72462
H         -1.83340       -8.62348       -4.46114
H         -2.51401       -8.55270       -6.08904
H          0.89157       -3.34513       -7.18302
H          2.52316       -3.88004       -6.83163
H          1.65781       -2.75290       -5.75075
H          6.02915       -7.13643       -5.46073
H          6.13938       -4.58661       -5.44503
H          1.78467       -3.43648       -3.15738
H          2.08293       -0.83512       -2.97132
H          6.60773       -1.69842       -5.25113
H          6.71412       -3.58836       -2.82181
H          8.25460       -2.94960       -1.16963
H          9.98130       -3.12523       -0.87240
H          8.13863       -5.44938       -1.63906
H          8.75740       -5.09658       -0.01463
H          9.87190       -5.56907       -1.30771
H          9.72643       -3.26275       -8.96875
H         11.45092       -3.47043       -8.68361
H          9.89874       -0.81012       -8.62110
H         10.99338       -1.35653       -9.90453
H         11.62353       -0.95811       -8.29499
H         12.85886       -4.18688       -6.95197
H         13.37712       -1.92018       -4.93313
H         17.80193       -2.72342       -7.79224
H         18.41969       -2.97688       -5.29422
H         13.84547       -3.87224       -3.48003
H         14.19507       -4.10048       -0.93935
H         18.97299       -3.73370       -3.41169
H         18.76643       -1.87391       -0.98263
H         20.01661       -0.58467        0.42267
H         21.63918       -0.82086        1.06603
H         20.51940       -2.18665        1.00400
H         25.47666       -1.83293       -4.55809
H         23.88239       -2.48842       -4.98906
H         25.06314       -3.51487       -4.13570
