96

C         -4.11343        2.36783       -7.32843
O         -4.80528        1.32647       -6.80839
C         -4.40113        0.18004       -7.44824
C         -3.41358        0.52775       -8.35934
C         -3.23456        1.93799       -8.29619
C         -2.33125        2.75887       -9.07362
O         -1.41110        2.29198       -9.73319
O         -2.62779        4.08728       -8.98691
C         -1.78853        4.92437       -9.78165
C         -4.95160       -1.09146       -7.15756
C         -6.07695       -1.56501       -7.73826
N         -6.83103       -0.90239       -8.77007
O         -8.05459       -1.10499       -8.77614
O         -6.22439       -0.23756       -9.62007
C         -6.42848       -2.86715       -7.22935
C         -5.50232       -3.23071       -6.32981
C         -4.50743       -2.15804       -6.21079
C         -3.41439       -2.17894       -5.41574
C         -2.46736       -1.07002       -5.26440
C         -1.47340       -1.47174       -4.45842
C         -1.73400       -2.83579       -4.05913
N         -0.82732       -3.59394       -3.22470
O         -0.78780       -4.82506       -3.34663
O         -0.10781       -2.94058       -2.45551
C         -2.88917       -3.30740       -4.57756
C         -3.42718       -4.63488       -4.38469
C         -4.50990       -4.93555       -3.64861
C         -5.07547       -6.25945       -3.61156
N         -5.45184       -6.90765       -2.43571
C         -5.40634       -6.35062       -1.09989
C         -6.71703       -5.66915       -0.73397
C         -6.00604       -8.18148       -2.69297
O         -6.45086       -9.00950       -1.92686
C         -5.96380       -8.25997       -4.16333
C         -5.38335       -7.04029       -4.65490
C         -5.37798       -7.11393       -6.12794
O         -4.95150       -6.28795       -6.90822
N         -5.99004       -8.35541       -6.38360
C         -6.19464       -8.84200       -7.73227
C         -4.98263       -9.59087       -8.25738
C         -6.28623       -9.03303       -5.20208
C         -6.87228      -10.34061       -5.16846
C         -6.31572      -11.36378       -4.50277
C         -6.95830      -12.67147       -4.42914
C         -7.78335      -12.96735       -3.34605
C         -8.40908      -14.22183       -3.28001
N         -9.26475      -14.45164       -2.13146
O         -8.72580      -14.43696       -1.01703
O        -10.47590      -14.59464       -2.34686
C         -8.22338      -15.21326       -4.26231
C         -7.39720      -14.87638       -5.34979
C         -6.76963      -13.62482       -5.43169
C         -8.88536      -16.53373       -4.22738
C         -8.34128      -17.67159       -4.68980
C         -9.08840      -18.87911       -4.62705
O         -9.06381      -19.68558       -3.51120
C         -9.89073      -20.73560       -3.71777
C        -10.48077      -20.63776       -4.94874
C         -9.93458      -19.47269       -5.56698
C        -10.21333      -19.03097       -6.92226
O        -11.19872      -19.40371       -7.54861
O         -9.20966      -18.27440       -7.45544
C         -9.29090      -18.12001       -8.87201
H         -4.34906        3.33812       -6.91225
H         -2.90098       -0.15450       -9.02609
H         -2.21468        5.93134       -9.77767
H         -1.74693        4.57498      -10.81857
H         -0.78663        4.96640       -9.34507
H         -7.28794       -3.44478       -7.53463
H         -5.53552       -4.16082       -5.80651
H         -2.53330       -0.08438       -5.69180
H         -0.61850       -0.88932       -4.14923
H         -2.89192       -5.42321       -4.91678
H         -5.04037       -4.15948       -3.10120
H         -4.56967       -5.64901       -1.01788
H         -5.22093       -7.16700       -0.39260
H         -6.96355       -4.87319       -1.44438
H         -6.65367       -5.22924        0.26585
H         -7.54597       -6.38514       -0.73963
H         -6.38505       -7.97862       -8.38138
H         -7.08856       -9.47272       -7.76965
H         -4.09546       -8.94900       -8.25828
H         -5.16043       -9.92924       -9.28270
H         -4.76217      -10.46652       -7.63906
H         -7.80745      -10.47189       -5.70723
H         -5.38258      -11.25896       -3.95398
H         -7.94100      -12.22738       -2.56154
H         -7.23323      -15.58195       -6.16283
H         -6.13157      -13.40554       -6.28600
H         -9.88562      -16.56450       -3.79629
H         -7.34447      -17.72058       -5.11370
H         -9.94973      -21.45389       -2.91191
H        -11.18579      -21.33380       -5.38342
H         -8.53606      -17.39050       -9.17721
H        -10.27360      -17.75503       -9.18522
H         -9.06110      -19.07524       -9.35559
