107

C          0.22697       -0.17032        0.02395
S          0.72428        0.94978        1.18906
C          1.83793        1.73092        0.14439
C          1.86595        1.06153       -1.09087
C          0.91414       -0.02429       -1.15532
C          0.73415       -0.89689       -2.35978
C          1.36702       -0.31504       -3.61899
F          1.47680       -1.32459       -4.53235
C          2.75470        0.25164       -3.33727
F          3.25923        0.77542       -4.49451
C          2.71385        1.37548       -2.30174
C          2.59406        2.91359        0.57235
S          3.02788        4.05863       -0.62486
C          4.06205        4.95665        0.39207
C          4.04283        4.42558        1.67700
C          2.98512        3.40877        1.82360
C          2.53471        2.95436        3.21237
N          1.05565        3.26316        3.46913
O          0.38043        2.37244        4.00283
O          0.65373        4.40767        3.21083
C          3.26647        3.66895        4.37414
C          4.73244        3.93941        4.07305
C          4.87618        4.89177        2.86976
N          6.37262        4.95870        2.59114
O          6.92079        3.94610        2.13182
O          6.95580        6.00236        2.90796
C          4.81177        6.04255       -0.15987
C          4.33052        6.82588       -1.14466
C          5.05399        7.90103       -1.76844
N          4.88051        8.28077       -3.10471
C          3.94385        7.71133       -4.05670
C          2.61762        8.46001       -4.08190
C          5.70010        9.38146       -3.44387
O          5.81081        9.97566       -4.49626
C          6.39399        9.67392       -2.17784
C          5.93400        8.72869       -1.19841
C          6.59112        9.04136        0.07977
O          6.44226        8.47148        1.14008
N          7.38349       10.15579       -0.24405
C          8.20655       10.82138        0.74384
C          9.62120       10.27058        0.79532
C          7.26775       10.49406       -1.59196
C          7.98869       11.58554       -2.17184
C          8.79804       11.44740       -3.23036
C          9.55906       12.53751       -3.77099
C          9.46463       12.94088       -5.05419
C         10.38757       14.06093       -5.25692
C         11.05652       14.25928       -3.95740
C         10.54795       13.36252       -3.09710
C         12.05132       15.19198       -3.59326
N         12.87197       15.96347       -3.29793
C         10.54817       14.74614       -6.40796
C         11.49676       15.83713       -6.60131
C         11.36087       16.33669       -7.84557
C         10.34267       15.54159       -8.52061
C          9.85786       14.59642       -7.69440
C          8.86515       13.66389       -8.07173
N          8.05068       12.90639       -8.40004
C         12.17432       17.40414       -8.33565
S         12.62116       17.40318      -10.00467
C         13.52530       18.83327       -9.86035
C         13.49992       19.34172       -8.58252
C         12.71407       18.52273       -7.69266
C         12.50910       18.94547       -6.25950
C         13.53362       19.97046       -5.77769
F         13.06949       20.49784       -4.60606
C         13.72700       21.09810       -6.78431
F         14.66975       21.96238       -6.30498
C         14.21661       20.57893       -8.13388
H         -0.53904       -0.89724        0.26018
H         -0.33132       -1.07921       -2.54459
H          1.18067       -1.87773       -2.15229
H          0.72748        0.45505       -4.06505
H          3.43400       -0.54854       -3.02372
H          2.31067        2.26971       -2.79417
H          3.74519        1.60006       -2.00823
H          2.66801        1.87082        3.30856
H          3.17932        3.06079        5.28389
H          2.79578        4.63238        4.61563
H          5.23706        2.98067        3.89289
H          5.21228        4.38138        4.95619
H          4.56101        5.90554        3.14837
H          5.80614        6.22361        0.23776
H          3.32910        6.66529       -1.53542
H          3.78194        6.65167       -3.83481
H          4.39369        7.76658       -5.05485
H          2.13566        8.45247       -3.09903
H          1.93300        7.99771       -4.80073
H          2.75921        9.50561       -4.37571
H          7.73854       10.68405        1.72530
H          8.21892       11.89776        0.54515
H          9.61999        9.20198        1.03336
H         10.19811       10.79160        1.56609
H         10.13555       10.40133       -0.16188
H          7.86819       12.55415       -1.69294
H          8.91588       10.48588       -3.72709
H          8.80388       12.49226       -5.77798
H         10.82646       13.23764       -2.06012
H         12.22651       16.15914       -5.88613
H         10.04972       15.69254       -9.55345
H         14.03624       19.23646      -10.72449
H         12.56402       18.10535       -5.56808
H         11.49820       19.36014       -6.15728
H         14.49436       19.49053       -5.55736
H         12.79542       21.66449       -6.89250
H         15.28970       20.35808       -8.06721
H         14.11318       21.37408       -8.88160
