110

C          6.97192        0.62942       -5.03810
S          6.50621        2.21144       -5.45681
C          6.75847        2.73104       -3.81826
C          7.13335        1.62229       -3.05355
N          7.23758        0.42435       -3.77274
C          7.40674        1.63804       -1.60860
O          7.28007        0.66041       -0.88115
O          7.80988        2.86728       -1.16408
C          8.08240        2.95295        0.23483
C          6.49560        4.07816       -3.41720
C          6.63239        5.12057       -4.24687
C          6.31382        6.48798       -3.90548
C          7.21661        7.49889       -3.80712
N          8.64822        7.37913       -3.99581
O          9.09308        6.44339       -4.67188
O          9.34680        8.26592       -3.48205
C          6.58048        8.76133       -3.55002
C          5.25675        8.56808       -3.50639
C          4.96898        7.13686       -3.68188
C          3.73501        6.56838       -3.62663
C          3.45108        5.12850       -3.67054
C          2.14041        4.93188       -3.46640
C          1.50631        6.21873       -3.35856
N          0.07518        6.38757       -3.23549
O         -0.63226        5.48314       -3.70092
O         -0.35681        7.38573       -2.64393
C          2.39300        7.22986       -3.48256
C          2.02235        8.61652       -3.62074
C          2.30582        9.55433       -2.71236
C          2.03846       10.95586       -2.87270
N          1.99562       11.81863       -1.78080
C          2.17322       11.48610       -0.38261
C          3.62613       11.61603        0.05517
C          1.84513       13.15378       -2.18034
O          1.77749       14.14819       -1.49797
C          1.81686       13.05937       -3.64074
C          1.94035       11.67411       -4.00343
C          1.97914       11.61502       -5.48269
O          2.09174       10.62208       -6.17915
N          1.89047       12.98184       -5.86028
C          1.90879       13.37947       -7.25631
C          0.52332       13.34476       -7.89286
C          1.79255       13.81378       -4.74091
C          1.83087       15.25260       -4.78740
C          1.19925       16.07613       -3.92768
C          1.34349       17.52013       -3.95284
C          1.85008       18.29234       -2.95476
N          2.29480       17.83225       -1.65994
O          1.66901       16.92416       -1.11047
O          3.24082       18.45252       -1.14701
C          2.04699       19.65756       -3.36897
C          1.68982       19.76629       -4.65296
C          1.15622       18.47691       -5.10576
C          0.59208       18.24170       -6.31604
C         -0.10468       17.00823       -6.69614
C         -0.46248       17.10099       -7.98581
C         -0.05634       18.39620       -8.47641
N         -0.30004       18.83895       -9.83125
O         -0.37324       17.95357      -10.69511
O         -0.45585       20.04729      -10.04635
C          0.55355       19.13058       -7.52234
C          1.11331       20.44665       -7.71251
C          0.61192       21.55243       -7.14202
C          1.31394       22.78413       -7.23999
S          0.73675       24.14628       -6.37243
C          2.09060       25.09277       -6.88088
C          2.90292       24.29743       -7.68991
N          2.44335       22.99086       -7.87907
C          4.11217       24.76421       -8.37642
O          4.78600       25.72181       -8.01124
O          4.33450       24.06732       -9.53051
C          5.17660       24.73341      -10.46818
C          2.24742       26.45291       -6.47520
C          1.21863       27.26518       -6.19743
H          7.03164       -0.15716       -5.78005
H          8.68386        3.85041        0.40059
H          8.64995        2.08913        0.59321
H          7.14167        3.05751        0.77975
H          6.13637        4.24466       -2.40243
H          7.03468        4.98806       -5.25195
H          7.09594        9.70466       -3.43699
H          4.57752        9.37829       -3.34854
H          4.12858        4.31677       -3.83764
H          1.62502        3.98339       -3.43832
H          1.45773        8.85848       -4.51973
H          2.83990        9.26236       -1.81101
H          1.79088       10.48032       -0.18299
H          1.56906       12.18218        0.21014
H          4.27571       10.93715       -0.50656
H          3.72366       11.38200        1.11976
H          3.99700       12.63475       -0.10294
H          2.55498       12.68754       -7.80319
H          2.34336       14.37615       -7.35717
H          0.09809       12.33612       -7.86637
H          0.58181       13.65929       -8.94073
H         -0.17253       14.01079       -7.37562
H          2.45860       15.68414       -5.56295
H          0.57837       15.67954       -3.12306
H          2.45348       20.43960       -2.74503
H          1.77949       20.68663       -5.19123
H         -0.35058       16.17581       -6.05870
H         -1.00411       16.36731       -8.56399
H          1.99202       20.50515       -8.35620
H         -0.27096       21.49785       -6.51101
H          5.46360       24.01501      -11.24050
H          6.08505       25.12973      -10.00557
H          4.60612       25.53823      -10.94316
H          3.25601       26.85848       -6.41715
H          0.17984       26.95798       -6.26334
H          1.40088       28.29361       -5.90151
