85

C          7.20572        0.65655       -2.76703
S          5.80856        1.40063       -2.14191
C          5.79012        2.51078       -3.47841
C          6.90890        2.26415       -4.28237
N          7.68741        1.17431       -3.86649
C          7.33361        3.03096       -5.46454
O          6.86435        4.11278       -5.80487
O          8.32061        2.38624       -6.15656
C          8.69937        2.99840       -7.38630
C          4.72743        3.46058       -3.50122
C          4.19679        3.92727       -4.63967
C          3.17464        4.94794       -4.69622
C          1.93464        4.79442       -5.22808
N          1.37419        3.55598       -5.73716
O          2.04877        2.52037       -5.69791
O          0.21478        3.61470       -6.17327
C          1.16365        6.00960       -5.15232
C          1.89108        6.93819       -4.51916
C          3.20500        6.36727       -4.18104
C          4.20445        7.00738       -3.51904
C          5.55238        6.48176       -3.26783
C          6.23567        7.35716       -2.51606
C          5.38846        8.49202       -2.27786
N          5.81256        9.64701       -1.51235
O          5.36876       10.76203       -1.81378
O          6.63132        9.43687       -0.60701
C          4.17928        8.34767       -2.86402
C          3.12821        9.31551       -2.74660
C          2.64134        9.99819       -3.79276
C          1.76820       11.08678       -3.60919
S          1.49690       11.85839       -2.10105
C          0.48694       13.10759       -2.75106
C          0.42380       12.88723       -4.08549
C          1.08342       11.76848       -4.54922
N          0.98233       11.48772       -5.88081
C          0.20227       12.55022       -6.32256
C         -0.19893       12.67854       -7.68537
N         -0.50178       12.74661       -8.80926
C         -0.13930       13.42262       -5.27025
C         -0.11373       14.09026       -1.92555
C          0.04368       14.08196       -0.59017
C         -0.57132       15.02155        0.27576
S         -0.90110       16.61775       -0.24222
C         -1.50767       17.08521        1.27492
C         -1.98768       18.43481        1.49986
O         -2.37387       18.88444        2.56308
O         -1.97054       19.19200        0.36418
C         -1.45183       16.04903        2.17998
C         -0.94014       14.84544        1.59915
O         -0.74512       13.65362        2.22366
C         -1.51544       13.29729        3.25503
S         -0.92155       12.29744        4.49499
C         -2.43099       12.41825        5.35039
C         -3.33002       13.11981        4.54099
N         -2.77499       13.63751        3.36304
C         -4.76715       13.28752        4.80041
O         -5.35556       12.83471        5.77670
O         -5.39640       13.89374        3.74885
C         -6.76617       13.53103        3.60795
C         -2.62008       11.78753        6.61959
C         -1.62489       11.58156        7.49345
H          7.67335       -0.18539       -2.27605
H          9.58896        2.48201       -7.75596
H          8.94549        4.05514       -7.25073
H          7.89711        2.87696       -8.12142
H          4.35929        3.83412       -2.54597
H          4.50431        3.53731       -5.60855
H          0.16576        6.13505       -5.54760
H          1.51695        7.92716       -4.34666
H          5.99024        5.57651       -3.64064
H          7.25596        7.26664       -2.17601
H          2.86036        9.56300       -1.71878
H          2.95869        9.74515       -4.79930
H          1.35990       10.69487       -6.38222
H         -0.72700       14.32731       -5.37337
H         -0.73539       14.82822       -2.42380
H          0.64242       13.32632       -0.08916
H         -1.63927       18.67880       -0.40002
H         -1.77049       16.14142        3.21246
H         -7.35967       13.82751        4.47694
H         -6.83462       12.45080        3.44098
H         -7.15963       14.03431        2.72049
H         -3.62749       11.49362        6.91037
H         -0.59740       11.87702        7.30711
H         -1.82480       11.11285        8.45235
