83

C         -3.49506        2.69247        5.26191
O         -3.22565        3.79431        4.51039
C         -2.44593        3.32812        3.47400
N         -2.20344        2.03181        3.55506
C         -2.86822        1.62255        4.68142
C         -1.94375        4.16224        2.42241
S         -1.65747        5.84801        2.66621
C         -1.62090        3.83170        1.13631
C         -1.67791        2.66458        0.29245
O         -2.14191        1.57005        0.56262
N         -1.16179        3.08567       -0.92348
C         -1.09687        2.24606       -2.09824
C         -2.35011        2.37441       -2.94921
C         -0.87561        4.43798       -0.96488
O         -0.53495        5.09569       -1.93394
C         -1.12893        4.91224        0.37363
C         -1.04466        6.10181        1.05372
C         -0.60299        7.40272        0.68326
C          0.27843        7.59756       -0.30909
C          0.72237        8.89026       -0.73530
N          0.52365        9.38482       -2.02543
C         -0.22484        8.73198       -3.08180
C         -1.69967        9.10154       -3.04181
C          1.00425       10.70431       -2.15274
O          0.95511       11.47442       -3.09045
C          1.57051       10.96942       -0.82007
C          1.36098        9.80730       -0.00792
C          1.88894       10.08512        1.33215
O          1.86658        9.34876        2.29699
N          2.35946       11.41264        1.20954
C          2.81344       12.12963        2.38075
C          4.25967       11.80981        2.72464
C          2.16680       11.91169       -0.08427
C          2.42657       13.24765       -0.54612
C          3.43582       14.04648       -0.17069
C          3.56121       15.42368       -0.65349
C          4.68143       15.86511       -1.37287
C          5.84883       15.04780       -1.73965
O          6.01137       13.88166       -1.43361
S          7.01580       15.96634       -2.65351
C          6.05652       17.42114       -2.54232
O          6.41174       18.48514       -3.01149
C          4.79440       17.19087       -1.81993
C          3.79468       18.14752       -1.56512
C          2.67847       17.68401       -0.86151
C          2.57869       16.38537       -0.40489
C          1.34226       16.28277        0.36009
O          0.94397       15.33807        1.00680
O          0.72806       17.48346        0.24329
C          1.45016       18.36958       -0.48074
O          1.12114       19.50501       -0.74546
C          3.91216       19.53570       -2.02801
C          3.86004       20.59498       -1.20442
C          3.95529       21.91450       -1.71871
O          3.67073       22.27793       -3.02222
C          3.85282       23.62226       -3.06267
N          4.24390       24.16696       -1.93664
C          4.30666       23.09708       -1.08195
H         -4.11722        2.83874        6.13207
H         -2.85874        0.59118        5.00509
H         -0.96397        1.20539       -1.78579
H         -0.22408        2.54426       -2.69028
H         -3.24387        2.10954       -2.37532
H         -2.28812        1.71384       -3.81897
H         -2.47839        3.40081       -3.30960
H         -0.99389        8.25531        1.23675
H          0.71692        6.77237       -0.86026
H         -0.09532        7.64741       -3.01727
H          0.19367        9.05216       -4.04293
H         -2.15774        8.80397       -2.09311
H         -2.23971        8.60544       -3.85399
H         -1.83612       10.18262       -3.15241
H          2.18285       11.82693        3.22588
H          2.66424       13.20520        2.25694
H          4.38257       10.74693        2.95738
H          4.57702       12.38755        3.59811
H          4.93275       12.04301        1.89451
H          1.70450       13.60521       -1.28256
H          4.21857       13.69580        0.49475
H          4.08689       19.67714       -3.09482
H          3.72194       20.48541       -0.13293
H          3.65852       24.10841       -4.00802
H          4.60638       23.22236       -0.05047
