90

C          7.97743        0.39787        0.41802
O          7.30975        1.49555        0.85590
C          6.54373        1.93990       -0.21416
N          6.70674        1.12986       -1.25236
C          7.56713        0.14403       -0.85645
C          5.69713        3.09244       -0.16218
C          5.67039        3.97882        0.86410
N          6.48736        3.94692        2.04704
O          5.89512        4.08565        3.12565
O          7.71571        3.91000        1.90466
C          4.73812        5.05641        0.64662
C          4.20536        4.89632       -0.57105
C          4.76699        3.69817       -1.18745
C          4.40701        3.28568       -2.42580
C          4.51346        1.90643       -2.89380
C          4.04860        1.84460       -4.14536
C          3.63196        3.16730       -4.54576
N          3.12079        3.42330       -5.87601
O          2.58217        4.50498       -6.10889
O          3.21676        2.49913       -6.69766
C          3.80454        4.08265       -3.55924
C          3.68991        5.53058       -3.72272
C          2.74136        6.32414       -3.19491
C          2.65319        7.75236       -3.40601
N          2.65400        8.69772       -2.36604
C          2.90572        8.47330       -0.96036
C          1.75717        8.92276       -0.07161
C          2.52274       10.01661       -2.85600
O          2.49815       11.07081       -2.27210
C          2.39933        9.79943       -4.30190
C          2.51352        8.39569       -4.57022
C          2.40862        8.23018       -6.02759
O          2.46851        7.20615       -6.66620
N          2.22992        9.55951       -6.50049
C          1.98941        9.72968       -7.91737
C          1.88902       11.12242       -8.49834
C          2.22360       10.46471       -5.44531
C          2.13478       11.89707       -5.53445
C          1.14339       12.61064       -4.97728
C          0.93446       14.05450       -4.88165
C          1.67334       15.08176       -5.37824
N          2.88034       14.97322       -6.15161
O          3.84642       15.64731       -5.76957
O          2.84685       14.30733       -7.19405
C          1.06842       16.37409       -5.16739
C         -0.11829       16.20304       -4.57103
C         -0.28752       14.77006       -4.29681
C         -1.33904       14.26279       -3.60651
C         -1.32847       12.97800       -2.90343
C         -2.52696       12.79833       -2.33593
C         -3.35403       13.94832       -2.62642
N         -4.72999       14.01598       -2.17383
O         -5.56168       14.63832       -2.84244
O         -4.99833       13.38478       -1.14115
C         -2.69486       14.88138       -3.35553
C         -3.25530       16.08906       -3.95144
C         -4.16801       16.04294       -4.93607
C         -4.72922       17.17071       -5.58717
O         -5.69260       17.02589       -6.57225
C         -5.97767       18.27946       -6.99907
N         -5.30553       19.22974       -6.39404
C         -4.52365       18.54471       -5.49784
H          8.66232       -0.06518        1.11264
H          7.84032       -0.67248       -1.51011
H          4.46302        5.79646        1.38330
H          3.37230        5.45174       -0.93960
H          4.79569        1.03821       -2.32900
H          3.96987        0.95710       -4.75598
H          4.43761        5.96641       -4.38795
H          1.95803        5.89898       -2.57173
H          3.81540        9.02147       -0.68696
H          3.09527        7.42231       -0.77883
H          1.66498       10.01311       -0.06143
H          1.92762        8.59665        0.95908
H          0.80633        8.50600       -0.41677
H          1.06541        9.18326       -8.14772
H          2.79009        9.19093       -8.44059
H          1.03822       11.67073       -8.08573
H          1.74001       11.05511       -9.58243
H          2.80685       11.69192       -8.32913
H          2.98154       12.33723       -6.04392
H          0.35413       12.01350       -4.53555
H          1.52808       17.31149       -5.44442
H         -0.74861       17.01310       -4.24817
H         -0.48659       12.32662       -2.73589
H         -2.82673       11.96723       -1.71433
H         -2.87911       17.03460       -3.57247
H         -4.55311       15.08267       -5.27276
H         -6.71500       18.36878       -7.78696
H         -3.84289       19.07359       -4.84329
