116

C         -7.49496        2.94914        1.26702
S         -6.14829        2.08801        0.68480
C         -5.49979        3.45629       -0.15118
C         -6.35771        4.54703        0.01303
C         -7.41655        4.28019        0.94094
C         -8.27942        5.32434        1.46331
O         -9.28047        5.10444        2.13289
C         -7.80464        6.71297        1.21129
C         -8.30806        7.75494        1.99890
C         -7.83188        9.05616        1.82385
C         -6.86227        9.33740        0.85069
C         -6.35683       10.74815        0.67228
C         -7.19027       11.52698       -0.33254
C         -6.38036        8.29592        0.04258
C         -6.83239        6.98114        0.23517
C         -6.23285        5.88073       -0.57250
O         -5.70786        6.11543       -1.65390
C         -4.17410        3.37869       -0.85913
C         -3.77096        2.23367       -1.58864
C         -2.61786        2.31259       -2.40560
N         -2.14957        1.22413       -3.07457
C         -2.79174        0.05379       -2.90355
C         -3.91344       -0.03439       -2.12501
N         -4.42217        1.04463       -1.49791
C         -1.93540        3.52199       -2.50783
C         -2.23450        4.59784       -1.67436
C         -3.31361        4.49523       -0.77381
N         -3.48676        5.46837        0.16703
C         -2.64890        6.52751        0.15607
C         -1.65226        6.64821       -0.77269
N         -1.43967        5.69681       -1.69649
C         -0.90586        3.69261       -3.53767
N          0.47019        3.47562       -3.42789
C          1.22135        2.94516       -2.30682
C          0.83785        3.43301       -0.91949
C          1.11186        3.69311       -4.67641
O          2.27408        3.52790       -4.98763
C          0.01319        4.16244       -5.54319
C         -1.19429        4.12390       -4.76909
C         -2.30616        4.55731       -5.63045
O         -3.48263        4.60588       -5.33548
N         -1.65649        4.86028       -6.84469
C         -2.38033        5.28720       -8.02334
C         -2.79814        4.11741       -8.89811
C         -0.28960        4.58690       -6.77115
C          0.62049        4.69957       -7.87449
C          0.99187        5.85048       -8.45661
C          2.02553        5.99291       -9.52908
C          1.84258        7.00739      -10.48132
C          2.86350        7.25135      -11.43649
N          2.64053        8.18450      -12.40507
C          1.49055        8.88526      -12.39234
C          0.53646        8.67449      -11.43539
N          0.69399        7.73473      -10.48372
C          4.10005        6.57128      -11.33278
C          4.25596        5.51862      -10.40979
C          3.19027        5.20714       -9.53589
N          3.29319        4.15664       -8.68848
C          4.39901        3.39956       -8.71379
C          5.44850        3.72286       -9.52725
N          5.41276        4.80344      -10.33327
C          5.28116        7.04507      -12.13542
S          5.59987        8.76074      -12.08852
C          6.93575        8.64375      -13.11893
C          7.26287        7.33581      -13.37406
C          6.30051        6.40081      -12.84542
C          6.48623        4.96938      -13.09548
O          5.59189        4.13277      -13.04541
C          7.86191        4.55903      -13.53546
C          8.24012        3.21098      -13.46571
C          9.49212        2.79690      -13.94494
C         10.38013        3.71599      -14.51944
C         11.69424        3.26703      -15.11215
C         12.83309        3.26195      -14.10500
C         10.01978        5.06833      -14.55021
C          8.77284        5.48963      -14.05728
C          8.45490        6.93677      -14.09700
O          9.19328        7.73201      -14.66425
H         -8.23946        2.46114        1.88274
H         -9.05215        7.55457        2.76827
H         -8.21881        9.85180        2.45916
H         -5.30811       10.72836        0.35165
H         -6.36597       11.26630        1.63947
H         -7.14283       11.06784       -1.32552
H         -6.82083       12.55410       -0.41521
H         -8.24222       11.56821       -0.03036
H         -5.63204        8.50025       -0.72253
H         -2.36864       -0.80880       -3.40402
H         -4.43253       -0.97193       -1.96421
H         -2.80872        7.27317        0.92482
H         -0.97659        7.49270       -0.79065
H          2.27492        3.20932       -2.46339
H          1.16731        1.85209       -2.35188
H          0.78065        4.52406       -0.88168
H          1.58764        3.11690       -0.18697
H         -0.11504        3.01128       -0.59091
H         -1.77575        5.99775       -8.59449
H         -3.27813        5.82534       -7.69830
H         -1.93229        3.53046       -9.22071
H         -3.31685        4.47948       -9.79114
H         -3.47417        3.44729       -8.35729
H          1.05587        3.75127       -8.17550
H          0.54494        6.78744       -8.12397
H          1.37178        9.62812      -13.17205
H         -0.38339        9.24611      -11.40319
H          4.39996        2.53393       -8.06325
H          6.34128        3.11311       -9.57095
H          7.46718        9.53080      -13.43944
H          7.55854        2.47297      -13.04598
H          9.76126        1.74305      -13.88831
H         11.95663        3.92221      -15.95313
H         11.57724        2.26495      -15.54206
H         13.00113        4.25978      -13.68649
H         13.76106        2.93929      -14.58949
H         12.62841        2.57617      -13.27662
H         10.70905        5.80056      -14.97197
