130

C         -0.40939        0.70984        4.11170
S         -1.79480        0.77161        3.14729
C         -1.59022        2.43465        2.69734
C         -0.47194        2.92879        3.38170
C          0.25831        1.90570        4.09327
C          1.56129        2.12906        4.70343
O          2.11020        1.32493        5.44405
C          2.24249        3.37618        4.26968
C          3.62153        3.51634        4.45321
C          4.28156        4.63740        3.93679
C          3.57796        5.63582        3.24111
C          4.35096        6.79054        2.64163
C          3.53378        7.79559        1.83468
C          2.18897        5.51014        3.11443
C          1.52565        4.38555        3.61782
C          0.05988        4.28467        3.41588
O         -0.61496        5.30470        3.36091
C         -2.48036        3.05807        1.69145
S         -2.03109        4.53355        0.91669
C         -3.46794        4.73537       -0.02403
C         -4.17190        3.54228        0.07695
C         -3.61226        2.58792        1.03393
C         -4.24191        1.26794        1.10060
O         -4.47249        0.61070        2.10424
C         -4.68132        0.77775       -0.22144
C         -4.42893       -0.53809       -0.61292
C         -4.72667       -0.92440       -1.92225
C         -5.31808       -0.01765       -2.81929
C         -5.57124       -0.40822       -4.25657
C         -4.76924        0.43286       -5.24573
C         -5.63925        1.27770       -2.37973
C         -5.27283        1.69045       -1.10100
C         -5.33297        3.12950       -0.71306
O         -6.24784        3.86994       -1.03553
C         -3.63622        5.91978       -0.83320
N         -3.24931        7.23176       -0.47138
C         -2.82673        7.72973        0.82429
C         -3.96205        7.74648        1.83244
C         -3.43793        8.14829       -1.52862
O         -3.19811        9.33701       -1.58282
C         -4.04245        7.32379       -2.57359
C         -4.10907        5.95760       -2.09299
C         -4.59802        5.15710       -3.24355
O         -4.60607        3.94701       -3.34786
N         -4.88879        6.12054       -4.23485
C         -5.38267        5.76185       -5.55384
C         -6.70513        6.42214       -5.93081
C         -4.44959        7.38152       -3.83800
C         -4.24120        8.44608       -4.77633
C         -5.11531        9.35918       -5.21820
C         -4.81571       10.33094       -6.23500
S         -6.15340       10.91562       -7.14747
C         -5.27325       12.09553       -8.04069
C         -3.92844       12.00162       -7.67092
C         -3.65703       10.90892       -6.73686
C         -2.26813       10.58488       -6.40155
O         -1.88070        9.99284       -5.40343
C         -1.25399       11.01386       -7.38618
C         -0.03279       10.33629       -7.45704
C          0.95566       10.78366       -8.33089
C          0.73599       11.90863       -9.13992
C          1.82256       12.39786      -10.06578
C          2.16324       11.37816      -11.14401
C         -0.49553       12.58006       -9.06498
C         -1.49505       12.12034       -8.19785
C         -2.79987       12.82370       -8.11552
O         -2.84781       14.02133       -8.34319
C         -5.94995       12.90379       -9.08387
S         -4.99358       13.69893      -10.30004
C         -6.32416       14.29107      -11.15629
C         -7.49726       13.80576      -10.64454
C         -7.30561       13.09100       -9.39918
C         -8.50026       12.64535       -8.68385
O         -8.58293       12.49995       -7.47103
C         -9.71834       12.44920       -9.51633
C        -10.72184       11.58724       -9.05852
C        -11.88168       11.39475       -9.81465
C        -12.06849       12.08216      -11.02149
C        -13.33747       11.89076      -11.81769
C        -13.21886       10.77906      -12.84871
C        -11.05592       12.93895      -11.48114
C         -9.87827       13.11664      -10.73877
C         -8.79796       13.97816      -11.27896
O         -8.98598       14.71245      -12.24242
H         -0.11517       -0.20625        4.60826
H          4.19199        2.74453        4.96774
H          5.36041        4.71942        4.06475
H          5.12155        6.37471        1.97962
H          4.86245        7.32425        3.45104
H          3.03003        7.31170        0.99149
H          4.18451        8.57772        1.43161
H          2.77521        8.28020        2.45825
H          1.60204        6.26549        2.59643
H         -3.95132       -1.23756        0.07026
H         -4.47241       -1.93254       -2.24692
H         -6.64251       -0.30703       -4.46363
H         -5.31933       -1.46428       -4.41156
H         -4.98442        1.50186       -5.14439
H         -5.01282        0.14290       -6.27278
H         -3.69225        0.29514       -5.09972
H         -6.09007        1.99358       -3.06403
H         -2.47193        8.76179        0.70495
H         -1.96089        7.17729        1.19042
H         -4.78178        8.38089        1.47866
H         -3.61309        8.14225        2.79101
H         -4.36598        6.74453        2.00330
H         -5.52932        4.67620       -5.58165
H         -4.60991        6.00160       -6.29269
H         -7.40520        6.45202       -5.08968
H         -7.17733        5.88316       -6.75812
H         -6.56035        7.44607       -6.28389
H         -3.23699        8.38969       -5.17045
H         -6.13574        9.32680       -4.83628
H          0.15657        9.46810       -6.82805
H          1.90800       10.25653       -8.36565
H          2.71546       12.62965       -9.47243
H          1.51594       13.33484      -10.54553
H          2.55865       10.45216      -10.71274
H          2.92328       11.78127      -11.81987
H          1.27829       11.12042      -11.73544
H         -0.67921       13.46235       -9.67606
H         -6.19023       14.90558      -12.03854
H        -10.60251       11.05593       -8.11518
H        -12.64574       10.70992       -9.44925
H        -13.60226       12.83117      -12.31632
H        -14.16725       11.66862      -11.13501
H        -12.42696       10.99049      -13.57471
H        -14.16084       10.67267      -13.39777
H        -12.99460        9.81759      -12.37472
H        -11.17950       13.46355      -12.42855
