100

C         -0.67635        2.62773        5.28936
S         -0.12607        3.36224        3.87716
C         -1.10509        2.36956        2.81076
C         -1.71145        1.35693        3.59605
C         -1.44825        1.53411        5.01532
C         -1.95974        0.66626        6.07523
O         -1.67743        0.80824        7.25222
C         -2.86590       -0.41972        5.63662
C         -3.48371       -1.21813        6.61326
C         -4.36270       -2.23870        6.24136
C         -4.61206       -2.49153        4.88853
C         -5.55511       -3.59093        4.46580
C         -6.99193       -3.10853        4.33249
C         -3.98911       -1.68966        3.92051
C         -3.12470       -0.64028        4.28135
C         -2.56645        0.22770        3.19141
O         -2.91457       -0.03093        2.04526
C         -1.07771        2.72951        1.30295
C         -0.92527        1.74549        0.32847
C         -0.89741        2.07046       -1.07264
N         -0.55380        1.09242       -1.94458
C         -0.51227       -0.18122       -1.50809
C         -0.66437       -0.49013       -0.18868
N         -0.75346        0.47333        0.73734
C         -1.20084        3.37707       -1.54031
C         -1.21525        4.39152       -0.54028
C         -1.07865        4.06787        0.85225
N         -0.89722        5.06691        1.75285
C         -0.73854        6.32873        1.33591
C         -0.95716        6.64686        0.03473
N         -1.29523        5.70265       -0.86588
C         -1.47787        3.65039       -3.09802
C         -2.15778        2.68692       -3.90336
C         -2.33702        2.88173       -5.31344
N         -2.74625        1.86008       -6.10067
C         -2.99270        0.66720       -5.54742
C         -2.98069        0.52001       -4.19372
N         -2.64014        1.53642       -3.37461
C         -2.10631        4.12185       -5.91949
C         -1.46932        5.08664       -5.13321
C         -1.07260        4.83270       -3.77203
N         -0.31045        5.76404       -3.15669
C         -0.14149        6.97006       -3.72855
C         -0.59693        7.22417       -4.98463
N         -1.20419        6.27088       -5.70742
C         -2.54137        4.38541       -7.37515
C         -3.16851        5.58759       -7.82420
C         -3.58862        5.83124       -9.17002
C         -3.41784        4.73844      -10.00946
N         -2.84294        3.55736       -9.66147
C         -2.39530        3.43213       -8.38371
C         -4.08082        7.17215       -9.64354
N         -4.94822        7.47931      -10.73734
C         -5.69104        6.61273      -11.63274
C         -5.53020        6.98616      -13.11377
C         -5.17733        8.88129      -10.84761
O         -5.91437        9.50142      -11.58564
C         -4.28955        9.43692       -9.84187
C         -3.68507        8.35092       -9.12382
C         -2.83680        8.98281       -8.08340
O         -2.25138        8.43514       -7.19624
N         -2.92649       10.36634       -8.35605
C         -2.34472       11.37833       -7.48169
C         -0.98380       11.01807       -6.90226
C         -3.84001       10.61670       -9.37435
C         -4.24438       11.92162       -9.80636
C         -3.41387       12.85944      -10.28072
H         -0.37494        2.99280        6.26395
H         -3.29813       -1.03941        7.67422
H         -4.84693       -2.83527        7.01274
H         -5.50608       -4.41454        5.18778
H         -5.22035       -4.00819        3.50799
H         -7.36594       -2.69924        5.27679
H         -7.64188       -3.94087        4.04283
H         -7.08238       -2.32920        3.56806
H         -4.19289       -1.87770        2.86626
H         -0.38056       -0.94440       -2.26331
H         -0.72940       -1.50773        0.17341
H         -0.42882        7.05284        2.07965
H         -0.84001        7.65677       -0.33756
H         -3.20485       -0.14668       -6.22936
H         -3.20791       -0.42578       -3.71961
H          0.35065        7.72671       -3.13157
H         -0.48902        8.19178       -5.45343
H         -3.32399        6.36500       -7.08137
H         -3.70759        4.74560      -11.05274
H         -1.89939        2.48063       -8.20587
H         -6.75165        6.69985      -11.36858
H         -5.42247        5.57061      -11.49970
H         -6.33278        7.66401      -13.43202
H         -5.60328        6.09686      -13.74769
H         -4.57539        7.48005      -13.32481
H         -3.05675       11.56247       -6.66770
H         -2.21670       12.31085       -8.03195
H         -1.05913       10.19743       -6.18881
H         -0.56350       11.86676       -6.35475
H         -0.28226       10.72872       -7.69216
H         -5.30988       12.13974       -9.75444
H         -2.34789       12.68238      -10.38902
H         -3.78823       13.83400      -10.58067
