118

C         -1.01621       -0.19269        2.00108
S         -2.03031        0.83532        2.91370
C         -1.36608        2.26027        2.19869
C         -0.30187        1.93149        1.36790
C         -0.17227        0.51801        1.17932
C          0.71662       -0.05856        0.18288
O          0.95198       -1.25687        0.10035
C          1.27011        0.91190       -0.80458
C          1.80172        0.42725       -2.00691
C          2.20977        1.31983       -3.00200
C          2.12575        2.70349       -2.79599
C          2.43799        3.66596       -3.91596
C          1.17981        4.00752       -4.70526
C          1.64814        3.18627       -1.56936
C          1.19294        2.29755       -0.58606
C          0.53616        2.86188        0.62689
O          0.69414        4.03374        0.94346
C         -2.00960        3.50605        2.40039
N         -1.63091        4.54201        3.25698
C         -0.51179        4.61461        4.17081
C         -0.26878        3.38877        5.03175
C         -2.43618        5.68402        3.04837
O         -2.41204        6.77524        3.58247
C         -3.36972        5.24606        2.00035
C         -3.08076        3.88057        1.68837
C         -4.04700        3.45734        0.65949
O         -4.13863        2.35612        0.15561
N         -4.82256        4.62777        0.43581
C         -5.93540        4.58918       -0.49641
C         -7.10523        3.72021       -0.05288
C         -4.34722        5.69910        1.20869
C         -4.78526        7.07303        1.25395
C         -5.55149        7.76597        0.41090
C         -6.09277        9.09135        0.55144
N         -6.23251        9.87506        1.70542
C         -5.75813        9.65406        3.06197
C         -6.31250        8.44925        3.81410
C         -6.85539       11.11539        1.39810
O         -7.09479       12.05334        2.13358
C         -7.15718       11.00622       -0.04478
C         -6.65923        9.73884       -0.48056
C         -6.96393        9.60204       -1.91469
O         -6.73134        8.64398       -2.62481
N         -7.61086       10.82581       -2.21493
C         -8.19076       11.07545       -3.52292
C         -7.43887       12.10717       -4.34972
C         -7.71896       11.63411       -1.07786
C         -8.29426       12.95054       -1.06795
C         -8.91561       13.47663       -0.00317
C         -9.41577       14.86260        0.03732
C        -10.77589       15.08166       -0.16846
C        -11.28325       16.39395       -0.05339
N        -12.61448       16.60768       -0.22492
C        -13.40293       15.54486       -0.50108
C        -12.89397       14.27971       -0.63667
N        -11.58359       14.03578       -0.47497
C        -10.39570       17.46103        0.22344
C         -9.01038       17.22319        0.38152
C         -8.52518       15.90028        0.32506
N         -7.21254       15.62881        0.54418
C         -6.38195       16.64608        0.82381
C         -6.83127       17.93567        0.83477
N         -8.12777       18.23459        0.59920
C        -10.97120       18.85102        0.17696
C        -10.59856       20.01439        0.74598
C        -11.07815       21.28211        0.03684
O        -12.09941       21.46321       -0.59514
C         -9.95012       22.15981        0.22592
C         -9.56504       23.36538       -0.27485
S         -7.98785       23.78239        0.23481
C         -7.82944       22.34207        1.18513
C         -8.98511       21.61429        1.11485
C         -9.48908       20.38267        1.65924
C         -9.16205       19.80401        2.83191
C         -9.91842       18.71868        3.36142
N        -10.55231       17.85063        3.79700
C         -8.07782       20.27331        3.61801
N         -7.15942       20.65464        4.22898
Cl       -10.42071       24.41108       -1.32647
H         -1.12122       -1.26836        2.06901
H          1.85012       -0.64413       -2.19784
H          2.56315        0.92795       -3.95503
H          3.19021        3.23269       -4.58554
H          2.87959        4.58173       -3.50528
H          0.73929        3.11145       -5.15655
H          1.41167        4.71315       -5.50875
H          0.41800        4.46412       -4.06332
H          1.57336        4.26089       -1.40385
H         -0.69552        5.45908        4.84791
H          0.38505        4.87504        3.59895
H         -1.20430        2.91730        5.34658
H          0.28602        3.67178        5.93309
H          0.33908        2.65210        4.49914
H         -5.55197        4.21901       -1.45318
H         -6.34685        5.57185       -0.68062
H         -6.82248        2.66861        0.03907
H         -7.91000        3.78533       -0.79523
H         -7.50870        4.05605        0.90760
H         -4.37275        7.61518        2.10386
H         -5.81566        7.32309       -0.54052
H         -6.04614       10.52790        3.66021
H         -4.66405        9.65760        3.04945
H         -7.40054        8.38413        3.74001
H         -6.03991        8.53004        4.87292
H         -5.90559        7.49664        3.47907
H         -9.23853       11.36560       -3.39383
H         -8.19356       10.13218       -4.08451
H         -7.54710       13.11406       -3.94080
H         -7.83628       12.13064       -5.36961
H         -6.37070       11.87856       -4.39876
H         -8.17780       13.55385       -1.96067
H         -9.07062       12.92254        0.91887
H        -14.46220       15.74550       -0.61001
H        -13.51445       13.42379       -0.87339
H         -5.35222       16.38751        1.03926
H         -6.17322       18.76956        1.05163
H        -11.79127       18.91282       -0.54694
H         -6.90436       22.14159        1.70929
