101

C         -0.04107        0.30679       -0.05003
S         -0.63311        1.40239        1.11721
C         -1.22365        2.48561       -0.08709
C         -0.97770        1.99126       -1.35800
C         -0.29447        0.73440       -1.33371
C          0.05012        0.00764       -2.54360
O          0.75565       -0.99224       -2.54678
C         -0.54877        0.53970       -3.80105
C         -0.48294       -0.24006       -4.96296
C         -1.12938        0.18080       -6.12976
C         -1.83694        1.38959       -6.15662
C         -2.62123        1.80117       -7.37828
C         -1.79988        2.59649       -8.37807
C         -1.84761        2.19756       -5.01173
C         -1.22536        1.76984       -3.82940
C         -1.37068        2.61650       -2.61264
O         -1.82052        3.75265       -2.69493
C         -1.88798        3.66518        0.31981
N         -1.27871        4.89650        0.54839
C          0.11910        5.21521        0.35484
C          0.40433        5.73940       -1.04439
C         -2.22990        5.87821        0.89290
O         -2.07701        7.06004        1.13362
C         -3.49579        5.13050        0.85521
C         -3.20404        3.76536        0.50640
C         -4.47327        3.02482        0.46056
O         -4.62983        1.85571        0.18716
N         -5.42517        4.02230        0.77647
C         -6.85531        3.76937        0.76743
C         -7.36432        3.41509       -0.62243
C         -4.81567        5.25532        1.00506
C         -5.53331        6.44413        1.34047
C         -5.49082        7.55978        0.59645
C         -6.15708        8.78391        0.93825
N         -6.66836        9.67112       -0.01065
C         -6.70998        9.47939       -1.44853
C         -7.98696        8.78667       -1.89949
C         -7.26488       10.79103        0.59499
O         -7.83942       11.73222        0.08229
C         -7.06183       10.54324        2.03300
C         -6.35745        9.29411        2.16109
C         -6.14079        9.04410        3.59738
O         -5.59151        8.09028        4.11375
N         -6.76055       10.15499        4.20493
C         -6.81937       10.29364        5.64705
C         -5.62345       11.04461        6.21112
C         -7.30291       11.02833        3.25339
C         -7.97444       12.24931        3.61824
C         -8.95095       12.83171        2.90503
C         -9.58726       14.02271        3.34059
O        -10.12204       14.93095        2.45842
C        -10.68743       15.97564        3.14510
C        -10.54128       15.71760        4.49365
C         -9.83557       14.49370        4.61969
N        -10.99617       16.50899        5.58009
O        -12.21381       16.69420        5.67127
O        -10.13121       16.90395        6.37075
C        -11.25521       17.02534        2.29672
C        -11.88480       18.16308        2.81233
C        -12.42889       19.12348        1.95918
C        -12.32108       18.93274        0.59513
N        -11.70912       17.86696        0.04454
C        -11.19414       16.94727        0.90185
H          0.44403       -0.61107        0.25819
H          0.03554       -1.19810       -4.95481
H         -1.10413       -0.45988       -7.00995
H         -3.48945        2.39535       -7.06609
H         -3.03273        0.90782       -7.86379
H         -1.37287        3.49530       -7.92146
H         -2.43392        2.91025       -9.21426
H         -0.97837        1.99723       -8.78343
H         -2.38678        3.14473       -5.02542
H          0.73629        4.33678        0.56961
H          0.39194        5.99113        1.07933
H          0.20376        4.97901       -1.80169
H          1.45581        6.02789       -1.13653
H         -0.21414        6.61278       -1.27581
H         -7.40184        4.64288        1.13803
H         -7.05603        2.93999        1.45405
H         -7.11531        4.19896       -1.34515
H         -8.45091        3.28712       -0.61011
H         -6.92262        2.47950       -0.97961
H         -6.10803        6.39950        2.26315
H         -4.90785        7.56120       -0.32165
H         -5.83084        8.92109       -1.78214
H         -6.65977       10.46481       -1.92695
H         -8.11737        7.82249       -1.39775
H         -7.96197        8.61108       -2.97979
H         -8.86585        9.40142       -1.67734
H         -6.84560        9.29013        6.08964
H         -7.75265       10.78944        5.93261
H         -4.68382       10.53542        5.97309
H         -5.70406       11.11868        7.30049
H         -5.56620       12.05920        5.80514
H         -7.63631       12.70962        4.54216
H         -9.28781       12.42774        1.95469
H         -9.56832       13.99666        5.54268
H        -11.97967       18.33861        3.87704
H        -12.92894       19.99932        2.35850
H        -12.73450       19.65054       -0.10704
H        -10.71000       16.11138        0.40023
