102

C          6.91792        0.92789       -3.76402
S          5.42987        1.72714       -3.60872
C          5.98855        2.69848       -2.29631
C          7.31518        2.39499       -1.98600
C          7.84786        1.36774       -2.84992
C          9.26141        0.87758       -2.78419
C          9.97545        1.24193       -1.47502
C          9.71126        0.23394       -0.36323
F          8.95334       -0.80633       -0.75902
F         10.89001       -0.27491        0.07171
F          9.11411        0.79077        0.71102
C          9.66461        2.68250       -1.01666
C         10.28089        3.65397       -1.94505
N         10.78542        4.40201       -2.67324
C          8.15678        2.97597       -0.87528
C          5.07372        3.65682       -1.69968
S          5.59342        5.15347       -1.05823
C          4.01696        5.62192       -0.55360
C          3.08824        4.68529       -0.97403
C          3.69547        3.56172       -1.61554
C          1.67106        4.81346       -0.79685
N          0.52672        4.90479       -0.62627
C          3.90015        6.85570        0.14855
C          2.98694        7.05404        1.11063
C          2.87631        8.29589        1.81896
N          2.92979        8.39549        3.20936
C          3.20956        7.32696        4.14703
C          2.07466        7.11026        5.13695
C          2.81718        9.73277        3.63273
O          2.88738       10.20360        4.75147
C          2.64410       10.45934        2.36606
C          2.69824        9.51107        1.29365
C          2.52876       10.24683        0.02713
O          2.52807        9.78139       -1.09333
N          2.37553       11.58168        0.46238
C          2.12752       12.67348       -0.46482
C          3.23513       13.71752       -0.49742
C          2.45681       11.67493        1.85356
C          2.28611       12.90195        2.57399
C          2.93170       13.21581        3.70855
N          2.77639       14.39977        4.38598
C          3.38431       14.64346        5.63198
C          4.30041       13.73590        6.38104
C          3.00942       15.85932        6.05292
C          2.18603       16.45532        5.04384
C          1.99163       15.49994        3.95692
O          1.31837       15.69192        2.96374
C          1.84351       17.69057        5.40089
C          0.94137       18.58445        4.62718
N          2.40121       17.94430        6.65776
C          3.12396       16.83506        7.16322
O          3.72250       16.65147        8.20490
C          2.21204       19.11502        7.36352
S          2.61320       20.57384        6.56528
C          2.15086       21.51631        7.90024
C          1.73573       20.74322        8.96190
C          1.84132       19.33487        8.68099
C          1.53596       18.29232        9.71842
C          0.84967       18.83452       10.98919
C         -0.67221       18.76720       10.91992
F         -1.12918       18.15000        9.81365
F         -1.14176       18.07300       11.98594
F         -1.24928       19.98589       10.97384
C          1.32633       20.24937       11.40135
C          2.71275       20.20047       11.91158
N          3.79036       20.16594       12.33181
C          1.22455       21.27887       10.26244
H          7.04643        0.17528       -4.53086
H          9.80273        1.33881       -3.62163
H          9.30221       -0.20349       -2.96363
H         11.05242        1.17898       -1.69056
H         10.13268        2.85707       -0.03794
H          8.03080        4.05878       -0.81185
H          7.78364        2.56018        0.06866
H          3.13026        2.71956       -1.99982
H          4.61406        7.64467       -0.08947
H          2.29012        6.28160        1.42075
H          4.11786        7.60102        4.69626
H          3.41474        6.39403        3.61480
H          1.91378        7.99409        5.76271
H          2.30753        6.27247        5.80109
H          1.13577        6.89357        4.61817
H          1.16882       13.13664       -0.20589
H          2.01479       12.25886       -1.47371
H          3.32988       14.24452        0.45606
H          3.02142       14.46999       -1.26354
H          4.20283       13.25929       -0.72272
H          1.57687       13.59141        2.12702
H          3.62167       12.49784        4.13470
H          4.62067       12.85424        5.82406
H          3.82636       13.38730        7.30384
H          5.21795       14.27227        6.64921
H          0.53736       18.07583        3.74528
H          1.47211       19.46234        4.25136
H          0.08706       18.90046        5.23290
H          2.20806       22.59463        7.84146
H          2.49373       17.85648       10.02928
H          0.95823       17.47045        9.27934
H          1.13334       18.14010       11.79428
H          0.70600       20.60897       12.23367
H          1.75803       22.20233       10.52299
H          0.17581       21.56188       10.10690
