82

C         -0.18612       10.66376        3.66387
N         -1.17129       10.67772        4.51775
C         -1.00133        9.50801        5.17973
C          0.15071        8.79690        4.66853
C          0.27972        7.52798        5.44325
O          1.10719        6.64582        5.35699
C         -0.86253        7.59342        6.37930
C         -1.58086        8.81756        6.15850
N         -2.63286        8.89645        7.01172
C         -2.54036        7.78573        7.69045
C         -1.42246        6.88012        7.34688
C          0.72983        9.48353        3.67675
C          1.88993        9.24363        2.81631
C          2.66733        8.08846        2.93563
C          3.77887        7.88057        2.10170
N          4.51519        6.64174        2.30463
O          3.88949        5.58614        2.14621
O          5.70792        6.73407        2.62414
C          4.16887        8.80581        1.11951
C          3.37374        9.94791        0.98845
C          2.26318       10.16500        1.82334
C          5.28579        8.57052        0.18463
C          6.14160        9.50407       -0.28426
C          7.29289        9.24165       -1.12212
C          7.69317        7.93798       -1.33598
S          9.13179        7.81122       -2.19054
C          9.32021        9.52443       -2.27821
C          8.23217       10.21678       -1.72692
C          8.23775       11.66039       -1.86115
C          6.92948       12.44523       -1.87957
C          6.36728       12.52599       -3.29860
C          9.47200       12.34870       -2.17872
C         10.50024       11.57579       -2.73862
C         10.41814       10.17809       -2.86410
C         11.52021        9.37694       -3.55441
C         12.63288        8.96299       -2.60080
S         11.82212       12.53947       -3.28061
C         11.16349       13.94210       -2.63219
C          9.90820       13.76738       -2.07663
C          9.33141       14.94347       -1.39984
C          9.52833       16.23754       -1.86808
N          9.15478       17.36495       -1.22311
C          8.53274       17.19207       -0.04701
N          8.25903       15.99256        0.51327
C          8.69215       14.89993       -0.17428
C          8.13422       18.42404        0.69365
N          8.49333       19.65651        0.38691
C          7.89233       20.41712        1.33946
C          7.14335       19.57709        2.23273
C          6.48699       20.42746        3.25882
O          5.76602       20.09411        4.17209
C          6.94172       21.78547        2.88154
C          7.78239       21.68951        1.71413
N          8.21055       22.93133        1.35648
C          7.65958       23.69601        2.25401
C          6.82011       23.04595        3.27726
C          7.25133       18.29992        1.89017
H         -0.01543       11.48258        2.94941
H         -3.23693        7.49200        8.49048
H         -1.16791        5.93070        7.77269
H          2.43413        7.32350        3.66839
H          3.58844       10.68581        0.21684
H          1.69649       11.07788        1.65713
H          5.40917        7.52576       -0.08940
H          6.00894       10.52252        0.05903
H          7.23677        7.01738       -1.00260
H          7.07066       13.46011       -1.51657
H          6.17111       12.01218       -1.23304
H          5.52690       13.22764       -3.33279
H          6.00245       11.54974       -3.63560
H          7.11966       12.86999       -4.01690
H         11.94185        9.94686       -4.38983
H         11.09615        8.48379       -4.02761
H         13.19970        9.83075       -2.24975
H         13.33079        8.29075       -3.11055
H         12.24393        8.44101       -1.72075
H         11.76127       14.84259       -2.68405
H         10.04613       16.43481       -2.80445
H          8.51187       13.95551        0.33352
H          7.78950       24.79254        2.28730
H          6.28603       23.49368        4.09266
H          6.83455       17.41412        2.32490
