82

C          0.87672        1.21179       -1.14519
N          0.36630        0.02896       -1.34536
C          1.27812       -0.55458       -2.16353
C          2.36570        0.35516       -2.43567
C          3.33480       -0.32426       -3.33680
O          4.37813        0.08816       -3.79180
C          2.71120       -1.65411       -3.53306
C          1.47871       -1.70860       -2.79118
N          0.89144       -2.92169       -2.95591
C          1.72452       -3.54184       -3.74525
C          2.93001       -2.79727       -4.16918
C          2.17495        1.51779       -1.81260
C          2.94477        2.75112       -1.75102
C          2.31036        3.97951       -1.54850
C          3.07149        5.16082       -1.45556
N          2.32460        6.38955       -1.26516
O          1.64453        6.47532       -0.23231
O          2.37856        7.23999       -2.16289
C          4.47480        5.16629       -1.52837
C          5.08737        3.92865       -1.77223
C          4.33899        2.74542       -1.87173
C          5.29429        6.38898       -1.41548
C          6.57464        6.44163       -1.00768
C          7.32050        7.66861       -1.00475
N          7.91684        8.23100        0.12578
C          7.89708        7.70402        1.47714
C          8.74419        6.45328        1.66066
C          8.50316        9.48275       -0.17288
O          9.06237       10.28035        0.55190
C          8.25099        9.62593       -1.61659
C          7.53837        8.46274       -2.05773
C          7.29818        8.59820       -3.50491
O          6.76382        7.78975       -4.23528
N          7.86296        9.85953       -3.79800
C          7.94301       10.37730       -5.15246
C          6.58521       10.60073       -5.80104
C          8.41409       10.44434       -2.65666
C          9.01021       11.74778       -2.65038
C          8.52749       12.73368       -1.87871
C          9.03567       14.10197       -1.84755
C          9.62115       14.75666       -2.91597
N         10.05438       16.03243       -2.87573
C          9.87136       16.67396       -1.70819
N          9.28389       16.15879       -0.60980
C          8.87768       14.87909       -0.71424
C         10.40461       18.05059       -1.58809
N         11.04034       18.71664       -2.53210
C         11.35005       19.89248       -1.92880
C         10.86475       19.90082       -0.57551
C         11.22535       21.18830        0.06667
O         11.00071       21.56583        1.19458
C         11.94228       21.88743       -1.02701
C         11.96956       21.03750       -2.18996
N         12.62766       21.66173       -3.20567
C         12.96091       22.80486       -2.66973
C         12.55985       23.03478       -1.26543
C         10.24451       18.76641       -0.28861
H          0.40361        1.97329       -0.50663
H          1.58008       -4.57153       -4.10528
H          3.72925       -3.11873       -4.80610
H          1.22539        4.04098       -1.47742
H          6.16544        3.85236       -1.90589
H          4.88377        1.81800       -2.04396
H          4.80970        7.31976       -1.70666
H          7.11117        5.55235       -0.69545
H          6.85794        7.51708        1.76804
H          8.28387        8.47532        2.15378
H          8.29333        5.58499        1.17370
H          8.83596        6.21391        2.72517
H          9.74959        6.58580        1.24893
H          8.51122        9.65017       -5.74301
H          8.49942       11.31973       -5.17088
H          5.96758        9.69846       -5.78163
H          6.71584       10.89158       -6.84870
H          6.03370       11.39679       -5.29141
H          9.85329       11.89922       -3.31886
H          7.69186       12.53437       -1.20805
H          9.76141       14.27112       -3.87791
H          8.40819       14.48026        0.18233
H         13.51532       23.59275       -3.20090
H         12.73178       23.89537       -0.64990
H          9.76886       18.42537        0.61089
