75

C          1.85556        0.63705       -1.82593
N          1.26253       -0.52342       -1.78320
C          1.75465       -1.07145       -0.64347
C          2.67581       -0.16280       -0.00788
C          3.19820       -0.79960        1.23036
O          3.98451       -0.35666        2.03790
C          2.49990       -2.10727        1.23215
C          1.65122       -2.18898        0.07020
N          1.00156       -3.37901        0.05176
C          1.43863       -3.96470        1.13228
C          2.41301       -3.21592        1.95579
C          2.79115        0.95891       -0.71358
C          3.57088        2.16092       -0.52305
C          4.01818        2.93026       -1.57671
N          4.73297        4.06176       -1.43197
C          4.97850        4.47163       -0.17996
N          4.59072        3.80693        0.91748
C          3.90651        2.66032        0.72035
C          5.70893        5.72807       -0.02181
N          6.55964        6.08540        1.03770
C          6.89919        5.28215        2.19691
C          8.09720        4.37300        1.96955
C          7.12661        7.35515        0.83005
O          7.92866        7.96422        1.51017
C          6.53317        7.78112       -0.45164
C          5.66921        6.72866       -0.90940
C          5.07463        7.16049       -2.18989
O          4.26423        6.56958       -2.87817
N          5.66206        8.42788       -2.39582
C          5.37391        9.21552       -3.58182
C          6.60992        9.53828       -4.40977
C          6.52199        8.76979       -1.34777
C          7.24978       10.00961       -1.29701
C          8.49465       10.10881       -0.80992
C          9.23797       11.32105       -0.80789
S         10.80124       11.31178       -0.10993
C         11.05714       12.97483       -0.40744
C         12.28113       13.52844        0.13785
O         12.63580       14.70376        0.07688
C         10.00844       13.54728       -1.11769
C          8.94584       12.58288       -1.28867
C          9.90706       14.91523       -1.59003
N          8.75682       15.54180       -1.69362
C          9.13129       16.77025       -2.13928
C         10.55850       16.81837       -2.30854
C         10.96568       18.15752       -2.77150
O         12.07523       18.58260       -3.00554
C          9.66246       18.84767       -2.88671
C          8.60693       17.94498       -2.49335
N          7.40543       18.56421       -2.61182
C          7.73404       19.75477       -3.04054
C          9.17294       20.02697       -3.23633
C         11.11027       15.64349       -2.03616
H          1.68769        1.37606       -2.62438
H          1.12549       -4.96823        1.45704
H          2.88879       -3.51364        2.86850
H          3.82860        2.66779       -2.61411
H          3.61832        2.15805        1.64009
H          6.03704        4.70118        2.52662
H          7.13498        5.96330        3.02331
H          7.94806        3.71808        1.10584
H          8.25996        3.74265        2.85077
H          9.01018        4.95389        1.80090
H          4.85870       10.13206       -3.27363
H          4.67417        8.65721       -4.21565
H          7.28175       10.22616       -3.89080
H          6.32569       10.02294       -5.34787
H          7.17747        8.63094       -4.63798
H          6.74877       10.87327       -1.72372
H          8.98391        9.22821       -0.39590
H         12.93901       12.81585        0.66560
H          8.00722       12.83442       -1.77227
H          7.00780       20.55013       -3.26480
H          9.65210       20.92553       -3.57640
H         12.13029       15.33734       -2.11273
