76

C          2.16322        2.28135        3.16985
N          1.39789        2.69005        4.14463
C          1.23324        4.00848        3.86253
C          1.94130        4.36130        2.65260
C          1.73599        5.81150        2.39559
O          2.15099        6.49191        1.48538
C          0.88753        6.22577        3.53991
C          0.63474        5.07934        4.37329
N         -0.13149        5.43520        5.43563
C         -0.32243        6.71049        5.24011
C          0.29688        7.30545        4.03575
C          2.56030        3.29720        2.16042
C          3.41335        3.16421        1.04982
S          3.68439        1.61858        0.33991
C          4.87890        2.20812       -0.72699
C          5.59674        1.25756       -1.54879
O          6.57097        1.52136       -2.24962
C          5.01150        3.57811       -0.62758
C          4.15195        4.12401        0.37581
C          5.94761        4.34776       -1.36950
N          5.68625        4.92125       -2.61531
C          4.40958        4.98834       -3.29137
C          3.71248        6.31746       -3.02750
C          6.79841        5.63967       -3.10020
O          6.91510        6.28718       -4.12058
C          7.77801        5.50108       -2.01055
C          7.18600        4.67795       -0.99426
C          8.14831        4.54825        0.10705
O          7.99661        3.94228        1.14819
N          9.23155        5.34062       -0.33663
C         10.37341        5.60293        0.51594
C         11.40222        4.48606        0.47634
C          8.98472        5.89475       -1.59868
C          9.92767        6.72822       -2.29966
C          9.58926        7.76581       -3.08728
C         10.51440        8.62133       -3.85270
C         10.00271        9.64359       -4.66904
C         10.87328       10.47965       -5.37626
C         12.23629       10.23822       -5.26889
N         12.77331        9.26437       -4.50195
C         11.90189        8.48528       -3.81748
C         10.35996       11.57496       -6.21766
N          9.17381       11.58162       -6.78310
C          9.15667       12.75828       -7.46729
C         10.39040       13.46584       -7.25440
C         10.36075       14.74781       -7.99590
O         11.20641       15.61159       -8.05432
C          9.03405       14.69305       -8.65197
C          8.37398       13.46390       -8.28016
N          7.15646       13.39843       -8.87984
C          7.10507       14.51162       -9.55890
C          8.27472       15.41149       -9.46826
C         11.20162       12.77986       -6.46231
H          2.52542        1.24657        3.07873
H         -0.90638        7.35500        5.91420
H          0.26314        8.32111        3.69683
H          5.22760        0.21660       -1.52053
H          4.13510        5.17801        0.63291
H          3.77297        4.15084       -2.99228
H          4.59374        4.89697       -4.36832
H          3.51362        6.45389       -1.95964
H          2.76198        6.36659       -3.56654
H          4.32957        7.16116       -3.35679
H         10.00775        5.70726        1.54457
H         10.83420        6.55795        0.24390
H         10.96899        3.53706        0.80874
H         12.24191        4.72453        1.13740
H         11.79226        4.34244       -0.53592
H         10.96661        6.44627       -2.16267
H          8.53771        8.02415       -3.20950
H          8.92794        9.79823       -4.75420
H         12.97235       10.81450       -5.81952
H         12.38957        7.71963       -3.22262
H          6.25208       14.81102      -10.18676
H          8.43424       16.35986       -9.94036
H         12.17683       13.02958       -6.09397
