90

C          0.95385       -0.11056        1.01539
S          0.87921        1.59989        1.14151
C         -0.24471        1.46087        2.47072
C         -1.05793        2.37091        3.21156
C         -1.81955        1.70356        4.15153
C         -2.87047        2.26657        4.98013
O         -3.57600        3.21708        4.67880
O         -2.98022        1.63827        6.17934
S         -1.43886        0.03416        4.26533
C         -0.41563        0.16163        2.86138
C          0.25657       -0.76233        2.00719
C          0.10691       -2.17086        2.10925
C         -0.88005       -2.93050        1.57774
N         -1.99155       -2.42376        0.80928
O         -3.02998       -3.09829        0.83697
O         -1.84203       -1.38721        0.15244
C         -0.68761       -4.33155        1.84440
C          0.45075       -4.47457        2.53565
C          1.02227       -3.14363        2.79343
C          2.15114       -2.89842        3.50286
C          2.66075       -1.56991        3.86250
C          3.86009       -1.71841        4.44588
C          4.16786       -3.12737        4.49488
N          5.40654       -3.65055        5.03213
O          5.96167       -2.97278        5.90694
O          5.86084       -4.70306        4.56451
C          3.15277       -3.88344        4.02091
C          3.13275       -5.32742        4.03299
C          2.24641       -6.06825        4.71771
C          2.31107       -7.48231        4.71514
S          3.01861       -8.45457        3.46236
C          2.77271       -9.95757        4.30594
C          2.10130       -9.65438        5.44169
C          1.83239       -8.32058        5.66149
N          1.15900       -8.00215        6.80886
C          0.98359       -9.25507        7.38802
C          0.32505       -9.43721        8.63968
N         -0.20979       -9.56166        9.65706
C          1.54157      -10.27496        6.58856
C          3.26489      -11.15744        3.73870
C          3.62768      -12.19299        4.50694
C          4.15481      -13.40925        3.95867
C          3.56191      -14.60807        4.12365
C          4.35667      -15.61621        3.41787
C          5.50205      -14.88965        2.84772
C          5.35800      -13.59172        3.16625
C          6.58719      -15.38502        2.09818
N          7.48788      -15.79243        1.47832
C          4.04831      -16.92547        3.32049
C          4.84265      -17.93579        2.62319
C          4.20964      -19.12191        2.71118
C          2.98608      -18.92264        3.47132
C          2.87838      -17.63951        3.84644
C          1.78374      -17.14039        4.59069
N          0.88238      -16.74097        5.20067
C          4.72631      -20.33042        2.12374
C          4.11129      -21.52093        2.19500
C          4.67882      -22.67898        1.59614
S          3.62743      -23.93430        1.05312
C          4.98580      -24.87056        0.50059
C          5.15591      -26.13293       -0.14051
C          6.49380      -26.41264       -0.34816
C          7.03195      -27.61329       -0.96614
O          6.36693      -28.56545       -1.35177
O          8.38462      -27.58952       -1.09197
S          7.53567      -25.16969        0.21600
C          6.16853      -24.24088        0.74898
C          6.01057      -22.97983        1.38549
H          1.50798       -0.54832        0.19464
H         -1.11438        3.43819        3.02687
H         -2.30374        0.94202        6.28358
H         -1.34695       -5.12500        1.52487
H          0.81192       -5.43372        2.84914
H          2.16569       -0.62090        3.75314
H          4.47922       -0.93747        4.86238
H          3.94978       -5.80080        3.48836
H          1.45241       -5.58253        5.27959
H          0.87809       -7.08767        7.13952
H          1.53597      -11.33086        6.82782
H          3.36766      -11.21388        2.65706
H          3.54871      -12.15961        5.59055
H          2.64900      -14.75449        4.67566
H          6.03090      -12.78740        2.90412
H          5.78173      -17.78983        2.11561
H          2.27302      -19.70600        3.68744
H          5.66803      -20.22807        1.58469
H          3.15679      -21.62775        2.70196
H          4.34634      -26.79467       -0.42803
H          8.76083      -26.75671       -0.74435
H          6.83625      -22.34074        1.67286
