84

C          4.63431       -1.82420       -3.97625
S          3.39527       -2.58507       -3.07255
C          3.35429       -1.22126       -2.03116
C          4.27219       -0.27601       -2.44110
N          5.03227       -0.65077       -3.53954
C          4.50726        1.04254       -1.77026
S          5.98120        1.91444       -1.96837
C          3.66122        1.76242       -0.97397
C          2.30410        1.67682       -0.49806
O          1.54811        0.72762       -0.63155
N          2.06894        2.86710        0.16901
C          0.85329        3.17371        0.89835
C         -0.43476        2.75749        0.20160
C          3.20935        3.65346        0.28282
O          3.34508        4.68036        0.92656
C          4.21713        2.96632       -0.48839
C          5.52507        3.16927       -0.85146
C          6.48210        4.17408       -0.55012
C          6.48389        4.84112        0.61448
C          7.39827        5.90895        0.92032
N          7.89041        6.17442        2.20192
C          7.65676        5.39723        3.40221
C          8.68107        4.28876        3.58650
C          8.73183        7.30755        2.20780
O          9.36321        7.80797        3.12000
C          8.67865        7.76448        0.81077
C          7.84771        6.84766        0.08204
C          7.79290        7.30324       -1.31760
O          7.20947        6.77384       -2.24165
N          8.59310        8.46490       -1.30057
C          8.86238        9.20251       -2.51904
C         10.31971        9.15236       -2.94654
C          9.09323        8.72196       -0.02026
C          9.93845        9.82609        0.33647
C          9.63279       11.11668        0.13285
C         10.54271       12.12646        0.53429
S         10.52269       12.74302        2.14874
C         11.52167       12.77092       -0.16832
C         12.02413       12.74435       -1.51954
O         11.55890       12.12891       -2.46342
N         13.10928       13.59695       -1.50694
C         13.92081       13.89031       -2.66827
C         13.35688       15.05106       -3.47032
C         13.28931       14.24117       -0.29700
O         14.11893       15.10075       -0.04949
C         12.28212       13.69230        0.58583
C         11.87966       13.82220        1.89652
C         12.31477       14.60583        3.00969
C         13.42170       15.36009        2.97211
C         13.85751       16.14096        4.07538
S         15.51046       16.67749        4.09680
C         15.22975       17.50063        5.56500
C         13.91910       17.33201        5.94674
N         13.14757       16.54372        5.11345
H          5.06556       -2.29244       -4.85099
H          2.68967       -1.21618       -1.18202
H          0.82305        4.25241        1.08493
H          0.92401        2.67631        1.87230
H         -0.47512        3.14226       -0.82215
H         -1.30114        3.13940        0.75056
H         -0.53812        1.66931        0.16146
H          7.24002        4.38367       -1.30363
H          5.75351        4.61258        1.38322
H          6.64252        4.98578        3.39385
H          7.71627        6.07394        4.26294
H          8.61477        3.55142        2.78056
H          8.51222        3.77149        4.53663
H          9.70015        4.68907        3.59352
H          8.51835       10.23318       -2.39442
H          8.25989        8.76978       -3.32694
H         10.96217        9.68511       -2.24272
H         10.44009        9.62024       -3.92880
H         10.68376        8.12227       -3.00508
H         10.86083        9.55567        0.85003
H          8.69966       11.41645       -0.33515
H         13.97837       12.99600       -3.29742
H         14.93394       14.14035       -2.33285
H         12.36561       14.80764       -3.86557
H         14.01526       15.28610       -4.31204
H         13.25863       15.94897       -2.85105
H         11.73063       14.56860        3.92983
H         14.04942       15.40412        2.09728
H         16.01332       18.05728        6.05705
H         13.47071       17.76298        6.83303
