114

C          7.26231       -1.27080        3.90582
C          7.61735       -0.23363        2.88948
O          8.74973        0.13806        2.63288
O          6.49259        0.21284        2.25722
C          5.33390       -0.50055        2.73019
C          5.77120       -1.06554        4.06693
C          5.04718       -2.30554        4.56476
C          4.49888       -3.25044        3.49271
C          4.00115       -2.62752        2.19293
C          4.91523       -1.53705        1.68207
O          4.15680       -0.90713        0.64372
C          2.82229       -1.15834        0.80300
O          1.96590       -0.68131        0.07529
C          2.57264       -2.06844        2.00928
C          1.84044       -1.32859        3.09978
C          1.03214       -0.24730        2.99419
C          0.67420        0.20703        4.34377
C          1.31292       -0.74125        5.25848
C          1.88128       -1.69283        4.50250
C          1.35654       -0.76317        6.67196
N          1.50014       -0.78774        7.82315
C         -0.10371        1.26488        4.64570
C         -0.32706        1.78930        5.98749
C         -1.18798        2.82785        5.92550
C         -1.56878        2.98736        4.52830
C         -0.90915        2.10447        3.76055
C         -1.12022        1.98819        2.36805
N         -1.31730        1.92785        1.22927
C         -1.58437        3.59001        7.07992
N         -1.80229        4.97424        7.10416
C         -1.57505        5.93329        6.04166
C         -0.15905        6.48494        6.04446
C         -2.14800        5.42108        8.39995
O         -2.36639        6.54510        8.80328
C         -2.14595        4.17878        9.18331
C         -1.79429        3.09912        8.30828
C         -1.79552        1.85582        9.10607
O         -1.54343        0.73454        8.71758
N         -2.16389        2.30669       10.38757
C         -2.24855        1.41326       11.52953
C         -0.93820        1.31612       12.29669
C         -2.35338        3.68501       10.40378
C         -2.75321        4.40376       11.57121
C         -2.08400        5.45392       12.06864
C         -2.51120        6.18836       13.22985
C         -3.21696        5.66786       14.25683
C         -3.44192        6.71225       15.25136
C         -2.76027        7.90747       14.72411
C         -2.20272        7.57272       13.54903
C         -2.63887        9.19186       15.30236
N         -2.55073       10.24264       15.78809
C         -4.13294        6.55449       16.39947
C         -4.39307        7.61753       17.35696
C         -5.07667        7.12165       18.40715
C         -5.29964        5.70427       18.15258
C         -4.76592        5.35639       16.96662
C         -4.82522        4.04771       16.42550
N         -4.86980        2.97585       15.97948
C         -5.56543        7.88565       19.61075
C         -6.93944        7.46476       20.11321
O         -7.31548        6.32147       20.31820
O         -7.70453        8.56094       20.38928
C         -6.92169        9.75665       20.27181
C         -5.78969        9.37989       19.33538
C         -4.55693       10.28174       19.44649
C         -4.13626       10.58260       20.87667
C         -5.27665       11.09975       21.73340
C         -6.51588       10.23138       21.67867
O         -7.54601       11.09731       22.18628
C         -7.21020       12.39854       21.92714
O         -7.95483       13.34911       22.09160
C         -5.82156       12.46650       21.36108
H          7.78216       -1.07830        4.84938
H          7.51698       -2.26228        3.52295
H          4.54007        0.24223        2.86741
H          5.64185       -0.27387        4.82037
H          4.24993       -1.96818        5.22636
H          5.70458       -2.88107        5.22993
H          3.73736       -3.91507        3.91572
H          5.32849       -3.91870        3.22187
H          4.05283       -3.44232        1.45051
H          5.80231       -1.97841        1.21102
H          1.93036       -2.89282        1.67299
H          0.75837        0.23733        2.06929
H          2.31431       -2.59511        4.90050
H          0.14727        1.44467        6.89135
H         -2.31507        3.68327        4.17515
H         -2.27771        6.76320        6.17984
H         -1.80469        5.50318        5.06861
H          0.09764        6.91577        7.01737
H         -0.06090        7.26946        5.28714
H          0.57088        5.70103        5.81888
H         -2.51386        0.41502       11.16317
H         -3.05695        1.73762       12.19305
H         -0.12715        0.96414       11.65087
H         -1.03936        0.61214       13.12947
H         -0.64255        2.28659       12.70790
H         -3.67074        4.05214       12.03758
H         -1.17945        5.81373       11.58102
H         -3.55791        4.64849       14.30639
H         -1.61855        8.21766       12.90744
H         -4.10353        8.64383       17.23970
H         -5.84007        5.03717       18.81193
H         -4.86721        7.73965       20.44366
H         -7.56136       10.50543       19.78932
H         -6.18088        9.48103       18.31131
H         -4.77044       11.22466       18.92859
H         -3.69713        9.84906       18.92754
H         -3.31480       11.30870       20.86816
H         -3.73644        9.66691       21.32970
H         -4.93179       11.15598       22.77555
H         -6.42290        9.38297       22.36637
H         -5.24646       13.26671       21.83283
H         -5.89037       12.63267       20.28286
