140

C          0.39586        0.49358       -6.50861
C         -0.22363        1.74853       -6.45903
C          0.62991        2.95621       -6.26407
O          1.67488        2.97037       -6.89945
C          0.21691        4.00013       -5.30007
C         -0.69577        3.66450       -4.29708
S         -1.31017        4.97861       -3.42621
C         -0.23343        6.01337       -4.21530
C          0.62702        5.40698       -5.13875
C          1.62145        6.34099       -5.73414
O          1.55491        7.53903       -5.42714
C          2.73760        6.04317       -6.66295
C          3.49171        4.87726       -6.65001
C          4.48914        4.66733       -7.61228
C          4.83782        5.68066       -8.50319
C          4.19571        6.90988       -8.42846
C          3.14410        7.08207       -7.52688
C         -1.61932        1.84478       -6.56337
C         -2.39393        0.68773       -6.57753
C         -1.77669       -0.56776       -6.54564
C         -0.38001       -0.66469       -6.55769
C         -2.57194       -1.78614       -6.45566
C         -3.02238       -2.52030       -7.49963
N         -2.85768       -2.17904       -8.89346
O         -2.82823       -3.12235       -9.69624
O         -2.80081       -0.98452       -9.21180
C         -3.66818       -3.72501       -7.05269
C         -3.67789       -3.73570       -5.71120
C         -3.05785       -2.49886       -5.22961
C         -2.99118       -2.11101       -3.93289
C         -2.18734       -0.99721       -3.42629
C         -2.33802       -0.93958       -2.09546
C         -3.26552       -1.97369       -1.69023
N         -3.71617       -2.11155       -0.31638
O         -3.29503       -1.27105        0.49150
O         -4.47432       -3.04034       -0.01455
C         -3.69082       -2.70913       -2.74374
C         -4.69399       -3.75583       -2.70616
C         -5.86774       -3.69316       -3.35671
C         -6.81642       -4.77171       -3.39868
N         -7.48252       -5.29125       -2.28903
C         -7.47759       -4.76715       -0.93938
C         -8.55604       -3.71301       -0.74195
C         -8.39807       -6.29702       -2.65710
O         -9.19196       -6.90374       -1.96813
C         -8.22517       -6.37967       -4.11713
C         -7.23242       -5.41042       -4.49706
C         -7.09292       -5.47908       -5.96216
O         -6.37605       -4.80061       -6.66563
N         -8.00786       -6.48077       -6.32802
C         -8.14797       -6.92114       -7.70333
C         -7.19908       -8.06417       -8.03643
C         -8.70057       -6.96605       -5.21848
C         -9.79156       -7.89258       -5.32005
C        -10.85483       -7.83240       -4.50410
C        -12.03648       -8.65303       -4.57708
C        -12.11361       -9.99862       -4.44287
N        -10.99573      -10.90111       -4.22274
O        -11.24249      -12.11240       -4.34212
O         -9.88799      -10.45691       -3.93005
C        -13.48656      -10.44533       -4.40784
C        -14.29650       -9.37911       -4.49542
C        -13.47066       -8.17818       -4.67459
C        -13.91853       -6.90962       -4.88353
C        -13.04017       -5.73748       -4.98592
C        -13.79877       -4.63607       -4.98026
C        -15.18202       -5.04026       -4.95914
N        -16.22638       -4.05379       -4.99661
O        -17.05500       -4.06015       -4.07568
O        -16.14474       -3.18271       -5.87358
C        -15.34034       -6.38447       -4.98273
C        -16.54070       -7.15967       -5.26462
C        -17.83713       -6.81118       -5.24248
C        -18.90712       -7.77694       -5.54914
C        -19.87016       -7.56937       -6.55991
C        -19.75156       -6.42153       -7.52967
O        -18.63912       -6.07995       -7.91665
C        -20.96832       -5.71309       -7.96669
C        -22.06051       -5.52975       -7.13174
S        -23.34687       -4.69076       -7.86478
C        -22.46546       -4.51529       -9.30901
C        -21.18325       -5.03795       -9.24349
C        -20.25768       -4.97707      -10.39201
O        -19.54095       -5.92595      -10.69788
C        -20.28886       -3.77299      -11.29360
C        -20.00555       -3.94510      -12.65519
C        -20.12132       -2.86841      -13.54653
C        -20.51143       -1.61838      -13.08272
C        -20.75566       -1.42513      -11.72238
C        -20.62427       -2.48887      -10.83213
C        -20.92418       -8.49403       -6.69534
C        -21.02302       -9.60024       -5.84355
C        -20.06040       -9.81498       -4.86469
C        -19.01374       -8.90771       -4.71402
H          1.48121        0.40845       -6.48550
H         -1.11145        2.69375       -4.06438
H         -0.25560        7.06347       -3.94771
H          3.31357        4.10386       -5.91141
H          4.99466        3.70600       -7.66198
H          5.62324        5.51938       -9.23682
H          4.50386        7.73255       -9.06845
H          2.65243        8.05367       -7.48375
H         -2.11075        2.81387       -6.59288
H         -3.47846        0.77248       -6.60987
H          0.10957       -1.63681       -6.57294
H         -4.05815       -4.49399       -7.70290
H         -4.05411       -4.55352       -5.12224
H         -1.51986       -0.36102       -3.97811
H         -1.84830       -0.25232       -1.42138
H         -4.44708       -4.63281       -2.10769
H         -6.10507       -2.83403       -3.98302
H         -6.49497       -4.36901       -0.69222
H         -7.66881       -5.59845       -0.25036
H         -8.40777       -2.86448       -1.41744
H         -8.54267       -3.34169        0.28702
H         -9.55096       -4.12600       -0.94112
H         -7.91853       -6.07515       -8.36128
H         -9.18509       -7.20948       -7.89930
H         -6.15445       -7.76032       -7.90798
H         -7.33416       -8.38002       -9.07601
H         -7.37519       -8.93075       -7.39092
H         -9.74869       -8.63201       -6.11450
H        -10.90071       -7.08919       -3.70986
H        -13.78896      -11.47150       -4.25810
H        -15.36611       -9.44084       -4.39616
H        -11.97033       -5.70735       -5.07940
H        -13.45727       -3.61540       -5.06657
H        -16.33886       -8.16727       -5.61408
H        -18.20419       -5.82111       -5.00959
H        -22.17508       -5.85464       -6.10483
H        -22.93794       -4.01821      -10.14661
H        -19.71284       -4.92094      -13.03738
H        -19.91743       -3.01604      -14.60350
H        -20.62533       -0.78668      -13.77775
H        -21.05443       -0.44131      -11.35941
H        -20.80154       -2.30660       -9.77124
H        -21.67745       -8.37460       -7.47091
H        -21.84801      -10.30139       -5.95121
H        -20.12480      -10.68272       -4.21076
H        -18.28600       -9.07865       -3.92228
