80

C          4.06598        3.86950        3.62236
C          2.85468        3.84996        4.50893
O          2.77727        4.35588        5.61503
O          1.85391        3.12943        3.91597
C          2.35170        2.52564        2.70877
C          3.47476        3.44996        2.28900
C          4.44160        2.82805        1.29331
C          4.94709        1.45289        1.71597
C          3.83902        0.47673        2.11092
C          2.77477        1.07678        3.01702
O          1.63494        0.22148        2.84154
C          1.69602       -0.39456        1.62592
O          0.79545       -1.07902        1.16903
C          3.02278       -0.10225        0.95266
C          3.66418       -1.31859        0.31782
C          4.48601       -1.20845       -0.81691
C          5.09378       -2.33976       -1.39250
C          4.85223       -3.54944       -0.74509
N          4.05930       -3.70646        0.34017
C          3.48594       -2.59559        0.84262
C          5.94648       -2.24401       -2.58422
S          6.89644       -0.83368       -2.93701
C          7.60159       -1.48636       -4.39610
C          7.07285       -2.72350       -4.54355
C          6.17159       -3.13684       -3.58021
N          5.61586       -4.37711       -3.75016
C          6.25066       -4.82147       -4.90714
C          6.00677       -6.10321       -5.46866
N          5.79300       -7.15946       -5.90932
C          7.13205       -3.84478       -5.41291
C          8.54432       -0.70392       -5.20539
C          9.40392        0.24178       -4.63415
C         10.25196        1.05480       -5.40434
C         10.28202        0.77757       -6.76496
N          9.49850       -0.14593       -7.36756
C          8.64254       -0.84891       -6.58145
C         11.12236        2.14432       -4.81398
C         11.53652        1.84644       -3.38511
O         12.37122        1.02692       -3.03947
O         10.78198        2.58499       -2.50835
C          9.93475        3.50253       -3.22155
C         10.55545        3.55916       -4.60215
C          9.66839        4.23458       -5.63659
C          8.21423        3.78249       -5.65025
C          7.57919        3.62148       -4.27405
C          8.46770        3.04549       -3.18858
O          7.85426        3.45573       -1.95738
C          7.05038        4.53242       -2.18754
O          6.42107        5.11666       -1.31818
C          7.09238        4.90738       -3.63809
H          4.80158        3.16329        4.01562
H          4.49075        4.87500        3.57096
H          1.54037        2.54730        1.97165
H          3.03488        4.34811        1.83180
H          5.29557        3.49802        1.13808
H          3.93843        2.74005        0.32246
H          5.62539        1.57535        2.56908
H          5.55552        1.02879        0.90938
H          4.31170       -0.35245        2.65831
H          3.08366        0.98506        4.06498
H          2.81451        0.65825        0.19079
H          4.65062       -0.22560       -1.25390
H          5.31897       -4.47701       -1.05909
H          2.86359       -2.77711        1.71668
H          4.91776       -4.84073       -3.18516
H          7.74142       -3.95543       -6.30459
H          9.41910        0.32447       -3.55007
H         10.96361        1.29172       -7.43854
H          8.01715       -1.55021       -7.12664
H         12.04099        2.22508       -5.40946
H         10.02730        4.47461       -2.72257
H         11.44670        4.20363       -4.51162
H         10.10464        4.13739       -6.63702
H          9.67229        5.31181       -5.41478
H          8.14382        2.83114       -6.18714
H          7.62711        4.49834       -6.24073
H          6.70219        2.96620       -4.38579
H          8.38600        1.96768       -3.18350
H          7.78584        5.74110       -3.77326
H          6.09431        5.16940       -3.99737
