107

C          0.72616        5.76748       -0.77605
C         -0.16579        5.67620        0.42836
O         -0.65755        6.62230        1.01848
O         -0.30628        4.36945        0.80683
C          0.55312        3.54489        0.00177
C          0.70230        4.33665       -1.28227
C          1.88756        3.91438       -2.13950
C          3.19064        3.79190       -1.35719
C          3.06846        2.95044       -0.09125
C          1.86667        3.29878        0.76728
O          1.70924        2.15430        1.62197
C          2.23695        1.04386        1.01718
O          2.11509       -0.08731        1.45656
C          2.90510        1.44243       -0.28791
C          4.16226        0.67031       -0.55895
C          4.28831       -0.39590       -1.37858
C          5.68711       -0.84582       -1.35332
C          6.38216        0.09760       -0.46356
C          5.46738        0.96170        0.01016
C          7.75113        0.16665       -0.11315
N          8.86416        0.25963        0.20248
C          6.18096       -1.92532       -1.99833
C          7.56629       -2.38634       -1.95148
C          7.69061       -3.51883       -2.67916
C          6.37672       -3.82663       -3.22525
C          5.48600       -2.89383       -2.85110
C          4.13848       -2.90482       -3.26590
N          3.03350       -2.91937       -3.62590
C          8.93189       -4.22697       -2.84865
N          9.07415       -5.61712       -2.95739
C          8.03882       -6.61585       -2.98359
C         10.42218       -5.99331       -3.13387
O         10.91542       -7.09224       -3.28273
C         11.11529       -4.70151       -3.11584
C         10.14295       -3.66413       -2.93972
C         10.85905       -2.37102       -2.94984
O         10.37894       -1.26177       -2.84564
N         12.19663       -2.75978       -3.13099
C         13.28560       -1.81511       -3.20259
C         12.31612       -4.14117       -3.21748
C         13.55958       -4.80511       -3.41142
C         14.04708       -5.71221       -2.55191
C         15.31495       -6.43369       -2.73831
C         15.52380       -7.72911       -2.22885
C         16.76465       -8.43036       -2.44515
N         16.88665       -9.66908       -1.94144
C         15.85859      -10.25637       -1.26631
C         14.69486       -9.57254       -1.03704
N         14.52577       -8.31077       -1.51478
C         13.62626      -10.10305       -0.24159
N         12.78475      -10.54554        0.42645
C         16.08979      -11.58572       -0.79161
N         16.24399      -12.66707       -0.37667
C         17.87414       -7.88166       -3.14929
C         17.64508       -6.58722       -3.69572
C         16.38287       -5.83535       -3.45872
N         16.42859       -4.59202       -3.97316
S         17.87501       -4.40794       -4.73497
N         18.51485       -5.90400       -4.45685
C         19.19041       -8.60455       -3.41311
C         19.26772      -10.03422       -2.91650
O         18.75838      -11.00384       -3.45769
O         19.99197      -10.09143       -1.75144
C         20.60785       -8.81929       -1.47950
C         20.51739       -8.09735       -2.80632
C         20.90032       -6.63126       -2.68083
C         20.18327       -5.85149       -1.58766
C         20.01447       -6.58793       -0.26657
C         19.90681       -8.10613       -0.31275
O         20.45897       -8.55175        0.94042
C         21.07878       -7.52758        1.59394
O         21.55932       -7.61059        2.71127
C         21.12184       -6.31193        0.72782
H          1.71704        6.09950       -0.45563
H          0.31184        6.45879       -1.51395
H          0.02697        2.60182       -0.18571
H         -0.21562        4.21665       -1.87574
H          2.02240        4.62577       -2.96286
H          1.65998        2.94652       -2.60281
H          3.52310        4.79777       -1.07180
H          3.97393        3.38788       -2.00884
H          3.96180        3.13942        0.51785
H          2.10314        4.15471        1.41074
H          2.17121        1.23731       -1.07809
H          3.47285       -0.83252       -1.93088
H          5.67833        1.76267        0.70394
H          8.37796       -1.90183       -1.43376
H          6.17140       -4.67317       -3.86381
H          7.17636       -6.32058       -2.38376
H          8.42552       -7.56169       -2.59054
H          7.74631       -6.77679       -4.02592
H         12.90640       -0.79076       -3.14645
H         13.81388       -1.94201       -4.15219
H         13.97388       -1.98315       -2.36875
H         14.08266       -4.51781       -4.31862
H         13.47395       -5.98503       -1.66613
H         19.31351       -8.64811       -4.50449
H         21.65570       -9.02051       -1.22693
H         21.29336       -8.54083       -3.45400
H         20.81149       -6.12442       -3.64603
H         21.97527       -6.59289       -2.45478
H         19.18944       -5.55950       -1.92535
H         20.70650       -4.89881       -1.43222
H         19.08858       -6.21097        0.19317
H         18.85260       -8.39743       -0.28693
H         22.10887       -6.22640        0.26666
H         20.89769       -5.41571        1.31603
