86

C          0.31847       -2.89682       -1.83782
C         -0.04433       -2.40655       -0.58515
C         -1.40399       -2.30776       -0.25765
N         -1.73805       -1.78721        1.05399
O         -1.35509       -0.63833        1.31479
O         -2.34494       -2.53989        1.82785
C         -2.41305       -2.68482       -1.15656
C         -2.02194       -3.17137       -2.41213
C         -0.66804       -3.27742       -2.74824
C         -3.84948       -2.56790       -0.88320
C         -4.54759       -1.49764       -1.29324
C         -5.94801       -1.38603       -1.06263
S         -6.91454       -0.48872       -2.16575
C         -8.36236       -0.76141       -1.27700
C         -8.10932       -1.52803       -0.15481
C         -6.73213       -1.89220       -0.04189
C         -9.10922       -1.92150        0.79433
N         -9.89749       -2.26698        1.57253
C         -9.57873       -0.22085       -1.77828
C         -9.97483        1.00980       -1.41765
C        -11.17550        1.63222       -1.90166
N        -11.44265        1.89802       -3.25282
C        -10.55501        1.62388       -4.37262
C        -10.68726        2.59573       -5.54266
C        -12.72246        2.45875       -3.41376
O        -13.31797        2.77678       -4.42227
C        -13.19823        2.59606       -2.03120
C        -12.19265        2.07403       -1.15398
C        -12.68787        2.22858        0.22644
O        -12.12194        1.88774        1.24452
N        -13.93793        2.87081        0.04558
C        -14.77546        3.25387        1.16940
C        -14.89567        4.76140        1.36633
C        -14.23108        3.03582       -1.31025
C        -15.43008        3.63680       -1.81633
C        -15.95991        3.35921       -3.01574
C        -17.12222        4.03721       -3.43247
S        -17.00703        5.46679       -4.36055
C        -18.71327        5.64215       -4.42622
C        -19.34616        4.60187       -3.77576
C        -18.43096        3.68045       -3.20111
C        -20.76927        4.46190       -3.69039
N        -21.91398        4.33295       -3.61077
C        -19.25531        6.74426       -5.13222
C        -19.52368        7.88978       -4.48895
C        -20.04858        9.07393       -5.17933
C        -20.91532        8.96970       -6.26726
C        -21.36694       10.12797       -6.91394
N        -22.23317        9.92525       -8.06060
O        -23.29598        9.32289       -7.85802
O        -21.82967       10.32398       -9.16091
C        -20.99643       11.41639       -6.49627
C        -20.16779       11.49691       -5.36463
C        -19.69647       10.34585       -4.71899
C        -21.49428       12.65136       -7.12928
C        -20.79715       13.79299       -7.20829
H          1.36877       -2.98085       -2.10810
H          0.72494       -2.10645        0.12320
H         -2.77132       -3.46931       -3.14427
H         -0.38419       -3.65574       -3.72831
H         -4.30467       -3.41011       -0.36788
H         -4.05194       -0.69421       -1.83607
H         -6.33222       -2.48544        0.77374
H        -10.16450       -0.82782       -2.46476
H         -9.40044        1.59154       -0.69804
H        -10.75431        0.60345       -4.71628
H         -9.52064        1.67609       -4.01845
H        -11.62737        2.44636       -6.08376
H         -9.88029        2.43909       -6.26399
H        -10.65104        3.63624       -5.20229
H        -14.34262        2.83166        2.08377
H        -15.76298        2.79704        1.04184
H        -13.91134        5.23063        1.45240
H        -15.46772        4.97857        2.27383
H        -15.41702        5.25492        0.54393
H        -15.92410        4.37652       -1.19923
H        -15.54155        2.62879       -3.69916
H        -18.70583        2.79200       -2.64449
H        -19.41220        6.62178       -6.20107
H        -19.31873        7.99971       -3.42772
H        -21.24610        7.99384       -6.62238
H        -19.87590       12.46394       -4.95776
H        -19.04163       10.46156       -3.85694
H        -22.48784       12.61709       -7.57283
H        -19.79055       13.89825       -6.81673
H        -21.22560       14.66443       -7.69407
