85

C          0.08786        1.52882        2.25114
C          1.12864        0.71582        1.81928
N          1.22247       -0.64515        1.94383
C          0.23385       -1.38398        2.54950
C         -0.89579       -0.67814        3.04321
C         -0.95168        0.81949        2.87905
N         -2.06771        1.36998        3.38250
S         -2.96842        0.12815        4.00935
N         -1.98712       -1.16142        3.66862
C          0.38117       -2.83938        2.64273
C          1.46120       -3.50525        2.17100
C          1.27521       -4.94501        2.39793
C         -0.03937       -5.06707        3.04106
C         -0.53762       -3.82867        3.18961
C         -0.73516       -6.22709        3.45157
N         -1.33956       -7.16347        3.77249
C          2.15424       -5.91718        2.07108
C          1.95502       -7.35669        2.25628
C          3.04298       -8.02151        1.80770
C          3.99594       -7.02404        1.34120
C          3.48500       -5.79091        1.46726
C          4.18097       -4.62445        1.08072
N          4.77963       -3.68552        0.74274
C          3.17389       -9.45441        1.79155
N          3.70313      -10.19949        0.72762
C          4.10914       -9.71706       -0.57767
C          5.58481       -9.96659       -0.85571
C          3.68338      -11.58591        1.00394
O          4.02866      -12.52311        0.31439
C          3.10180      -11.64313        2.35031
C          2.82060      -10.29808        2.76924
C          2.25818      -10.36392        4.13027
O          1.91574       -9.42948        4.82583
N          2.25632      -11.74997        4.40049
C          1.76538      -12.28182        5.65589
C          0.26927      -12.55507        5.64430
C          2.75338      -12.48733        3.32247
C          2.90658      -13.91822        3.33268
C          2.41199      -14.72976        2.38308
C          2.59113      -16.18980        2.39952
C          3.67025      -16.85530        1.80308
C          3.77320      -18.29685        1.78788
N          4.78995      -18.85347        1.10083
C          5.75241      -18.06623        0.55318
C          5.66625      -16.69969        0.60781
N          4.61895      -16.09162        1.21792
C          6.65662      -15.83637        0.03563
N          7.48684      -15.17784       -0.43772
C          6.86222      -18.75954       -0.03243
N          7.77260      -19.30926       -0.50008
C          2.85150      -19.15685        2.45117
C          1.73383      -18.49028        3.04914
C          1.58923      -16.99185        2.99981
N          0.45120      -16.55505        3.56749
S         -0.35187      -17.88110        4.13815
N          0.71354      -19.06843        3.70806
C          2.96541      -20.63728        2.53208
C          1.87194      -21.53230        2.49922
N          1.85903      -22.90803        2.57656
C          3.02046      -23.60420        2.67833
C          4.21988      -22.87383        2.71346
C          4.19318      -21.35702        2.67391
N          5.43168      -20.84805        2.82454
S          6.50190      -22.11194        2.79667
N          5.45543      -23.39476        2.77812
H          0.07450        2.60094        2.11966
H          1.98649        1.16773        1.31978
H          2.29675       -3.02361        1.68866
H         -1.49258       -3.59719        3.63734
H          1.07981       -7.83504        2.66612
H          4.97445       -7.26247        0.94522
H          3.88305       -8.65524       -0.69435
H          3.51058      -10.24873       -1.32613
H          6.21737       -9.51898       -0.08276
H          5.86566       -9.54267       -1.82462
H          5.80677      -11.03816       -0.88776
H          1.97925      -11.54681        6.44058
H          2.31587      -13.19244        5.91002
H         -0.30158      -11.64069        5.45166
H         -0.04585      -12.95093        6.61584
H          0.00257      -13.28759        4.87618
H          3.47083      -14.32447        4.16823
H          1.85126      -14.33786        1.53743
H          0.85644      -21.14605        2.39846
H          2.96593      -24.68353        2.72999
