93

C          1.29203       -0.38249       -1.19370
C          1.38277       -0.91048        0.08192
C          0.62751       -0.08652        1.02803
C          0.39278       -0.20446        2.42842
C         -0.36124        0.74361        3.13578
C         -0.88242        1.84654        2.47431
C         -0.67830        2.00285        1.10443
C          0.06777        1.03500        0.39974
S          0.41150        1.06606       -1.27938
C         -0.57194        0.57425        4.54435
N         -0.72959        0.43375        5.68552
C          2.15675       -2.13926        0.32821
C          1.80772       -3.09756        1.30654
F          0.67975       -2.94636        2.01682
C          2.54569       -4.26368        1.57753
F          2.09885       -5.07936        2.54607
C          3.69655       -4.61376        0.87553
C          4.11642       -3.73420       -0.14464
C          3.33461       -2.46451       -0.42860
N          3.89213       -1.76287       -1.43279
S          5.21127       -2.59943       -1.97370
N          5.17864       -3.89690       -0.95254
C          4.41818       -5.84689        1.10524
C          4.07124       -6.96519        0.44926
C          4.73288       -8.20144        0.72119
N          5.44590       -8.97470       -0.19853
C          5.75259       -8.68907       -1.58408
C          4.62026       -8.09688       -2.39988
C          6.03550      -10.09229        0.43581
O          6.75560      -10.96328       -0.00425
C          5.58324       -9.92995        1.82464
C          4.74953       -8.78183        1.92115
C          4.23788       -8.68856        3.30420
O          3.49036       -7.85079        3.76424
N          4.81327       -9.82232        3.92421
C          4.51793      -10.13375        5.31772
C          5.07021      -11.42343        5.91445
C          5.62560      -10.49758        3.01772
C          6.22329      -11.74243        3.26988
C          7.49235      -12.10451        3.11878
C          7.97739      -13.46764        3.38344
C          9.37167      -13.69948        3.38541
C         10.41494      -12.82048        2.81694
O         10.22523      -11.92445        2.01803
S         12.01067      -13.30996        3.31692
C         11.39832      -14.81208        3.96245
O         12.12220      -15.66807        4.43385
C          9.92597      -14.87866        3.89692
C          9.10915      -15.93952        4.31933
C          7.72469      -15.76103        4.15108
C          7.16571      -14.57282        3.72209
C          5.70273      -14.81770        3.69309
O          4.79165      -14.19748        3.19300
O          5.49781      -16.00488        4.28579
C          6.62847      -16.70858        4.37072
O          6.66242      -17.90356        4.57671
C          9.65751      -17.19856        4.83418
C          9.05360      -17.86588        5.82922
C          9.43936      -19.16773        6.21011
C         10.69145      -19.72862        6.23324
C         10.70756      -21.02506        6.81977
C         11.80583      -21.85353        7.10658
C         11.60164      -23.08609        7.72668
C         10.31487      -23.50960        8.05096
C          9.20581      -22.71123        7.76286
C          9.42448      -21.46295        7.15542
S          8.25024      -20.28274        6.74721
C         12.73141      -23.89767        8.04156
N         13.66634      -24.54748        8.29649
H          1.72083       -0.75727       -2.11294
H          0.79960       -1.04338        2.98647
H         -1.45605        2.59762        3.01569
H         -1.08485        2.86845        0.58525
H          5.22127       -5.81653        1.84825
H          3.25423       -6.98162       -0.25479
H          6.05240       -9.63193       -2.06015
H          6.63326       -8.03822       -1.60757
H          3.71866       -8.71316       -2.32194
H          4.90599       -8.02415       -3.45209
H          4.38096       -7.08197       -2.07905
H          3.42678      -10.13353        5.43399
H          4.89061       -9.28995        5.90874
H          4.66029      -12.30500        5.41245
H          4.79724      -11.52438        6.96753
H          6.16364      -11.44748        5.86027
H          5.45290      -12.40644        3.57259
H          8.20267      -11.32473        2.85055
H         10.54164      -17.59412        4.33688
H          8.17365      -17.47262        6.32920
H         11.57845      -19.19548        5.91700
H         12.81121      -21.51504        6.85895
H         10.16302      -24.46382        8.54848
H          8.20285      -23.04099        8.02313
