82

C          0.74436       -1.63805        2.92153
C          0.29655       -2.93386        2.98031
O          1.23678       -3.78378        2.49685
C          2.29618       -3.02468        2.13062
C          2.04620       -1.67931        2.33327
C          2.95781       -0.56646        2.06754
O          2.88616        0.46849        2.71040
C          3.93036       -0.80560        0.99574
C          3.82310       -1.54057       -0.17062
C          5.03271       -1.55398       -0.92695
C          6.02499       -0.78323       -0.35140
S          5.47261       -0.08239        1.11614
C          7.38564       -0.52903       -0.83248
C          8.08801        0.62981       -0.55299
N          9.33588        0.89338       -0.99427
C          9.89863       -0.03809       -1.77964
N          9.30861       -1.19000       -2.13353
C          8.07581       -1.41796       -1.63579
C         11.21476        0.24846       -2.34451
N         11.71075        1.51143       -2.70691
C         11.02669        2.78669       -2.58379
C          9.77260        2.90736       -3.43957
C         13.02431        1.42102       -3.20772
O         13.76387        2.29821       -3.59764
C         13.30243       -0.02959       -3.15436
C         12.14268       -0.67864       -2.60579
C         12.42663       -2.12083       -2.52049
O         11.71311       -3.00441       -2.09090
N         13.73960       -2.20678       -3.03261
C         14.42077       -3.48144       -3.13770
C         14.17442       -4.16715       -4.47204
C         14.22823       -0.95431       -3.42066
C         15.55233       -0.74702       -3.94499
C         15.87748        0.22559       -4.81201
C         17.22321        0.44651       -5.32980
N         18.27226        0.04214       -4.59482
C         19.48413        0.24613       -5.13916
C         19.67592        0.78290       -6.38888
C         18.53527        1.16703       -7.05530
N         17.30045        1.02098       -6.53733
C         18.61992        1.65952       -8.43349
C         17.67360        2.43827       -8.98131
C         17.55112        2.76393      -10.36281
C         17.06334        3.98449      -10.77886
O         17.01055        4.04111      -12.12896
C         17.45218        2.84380      -12.58885
C         17.79088        1.98870      -11.55119
C         18.28605        0.62762      -11.78831
O         18.95862        0.38462      -12.79503
C         18.02095       -0.39651      -10.78314
C         18.85696       -1.43776      -10.40424
C         18.35493       -2.15823       -9.27872
C         17.12936       -1.68107       -8.87334
S         16.50990       -0.52461       -9.97232
H          0.20030       -0.76062        3.25519
H         -0.61398       -3.40492        3.32993
H          3.14589       -3.57547        1.75021
H          2.92444       -2.06283       -0.47853
H          5.14694       -2.08883       -1.86374
H          7.65784        1.43205        0.03944
H          7.65926       -2.38004       -1.91942
H         11.71745        3.57966       -2.89344
H         10.80795        2.96841       -1.52640
H          9.98635        2.68373       -4.48881
H          9.37127        3.92388       -3.37487
H          8.97903        2.22977       -3.11793
H         14.05202       -4.13535       -2.33806
H         15.49194       -3.34832       -2.96340
H         13.11852       -4.43425       -4.58694
H         14.76391       -5.08761       -4.53683
H         14.45151       -3.52263       -5.31195
H         16.32877       -1.43081       -3.61202
H         15.13988        0.91862       -5.20319
H         20.32677       -0.05321       -4.52365
H         20.66236        0.89747       -6.81447
H         19.43866        1.26405       -9.02457
H         16.88836        2.82707       -8.33027
H         16.73162        4.87395      -10.25925
H         17.44913        2.73816      -13.66629
H         19.81918       -1.62746      -10.86773
H         18.87625       -2.96289       -8.77355
H         16.54478       -1.98446       -8.01501
