77

C          2.78319        0.53120       -2.61284
C          3.68592        1.68474       -3.01789
C          3.69138        2.80252       -2.00886
S          4.88356        2.79249       -0.79379
C          4.45142        4.35013       -0.20779
C          5.34949        4.99124        0.74827
S          5.94484        6.56834        0.41697
C          7.00048        6.60423        1.78156
C          7.92937        7.76119        1.91512
C          9.34676        7.62094        1.97503
O          9.68782        6.31536        2.22632
C         10.96137        5.76415        2.48549
C         10.23913        8.73896        1.77131
O         11.58274        8.50446        1.53022
C         11.86219        7.58676        0.45346
C          9.82604       10.13706        1.77915
C         10.70279       11.36360        1.87661
C         12.00077       11.51224        1.31307
F         12.50339       10.53571        0.54387
C         12.85687       12.64530        1.44374
C         12.49647       13.82361        2.09827
C         11.21238       13.80332        2.66982
N         10.65914       14.84668        3.30681
S          9.17519       14.33794        3.82892
N          9.21062       12.75380        3.35244
C         10.31839       12.55772        2.61011
C          8.39512       10.28076        1.69317
N          7.72110       11.42243        1.45013
S          6.10889       11.10024        1.54156
N          6.15035        9.46644        1.74475
C          7.44508        9.09412        1.78805
C          6.89793        5.40445        2.46897
O          7.65671        5.15080        3.56161
C          5.97237        4.47706        1.87693
C          5.76951        3.14846        2.38082
N          5.69043        2.07978        2.82663
C          3.30116        4.83289       -0.84719
C          2.63297        6.17077       -0.57716
C          1.18417        6.09706       -0.11539
C          2.88849        3.92372       -1.91074
C          1.83375        4.17560       -2.85292
C          0.56816        3.74708       -2.70479
C         -0.50509        4.03136       -3.63039
C         -0.48405        3.68584       -4.93111
C         -1.62934        4.01191       -5.79150
C         -1.64285        3.70366       -7.11981
C         -2.74188        4.01785       -7.95698
N         -3.65069        4.28148       -8.64657
C         -0.54214        3.04566       -7.74375
N          0.35263        2.51316       -8.23165
C         -2.76482        4.68776       -5.14333
C         -2.68052        4.97545       -3.83759
O         -1.59353        4.66960       -3.04245
H          2.82796       -0.26085       -3.36795
H          1.74092        0.85106       -2.52108
H          3.09066        0.09950       -1.65459
H          3.37406        2.06763       -3.99666
H          4.70555        1.30269       -3.15995
H         10.88347        5.04382        3.30537
H         11.74072        6.47581        2.75374
H         11.23672        5.18074        1.59970
H         12.12990        8.10396       -0.47048
H         11.04527        6.89826        0.21232
H         12.73180        6.99341        0.76228
H         13.84586       12.58871        0.98890
H         13.14627       14.68885        2.16566
H          7.63355        4.21048        3.81588
H          2.69664        6.78158       -1.48649
H          3.16870        6.72053        0.20001
H          0.53093        5.61764       -0.84414
H          0.79283        7.10918        0.03737
H          1.09507        5.55138        0.82852
H          2.10403        4.76500       -3.72674
H          0.28189        3.19813       -1.80930
H          0.37728        3.15606       -5.32869
H         -3.66125        4.96004       -5.69103
H         -3.45318        5.47400       -3.26866
