88

C          0.61927        1.62864        8.29579
C         -0.37590        0.63881        8.37154
C         -0.12423       -0.72579        8.10633
F         -1.15177       -1.57956        8.24172
C          1.13744       -1.23575        7.74295
C          2.18562       -0.28137        7.66171
C          1.91434        1.17999        7.94107
N          3.00304        1.95175        7.81533
S          4.25859        0.93976        7.42151
N          3.47161       -0.52131        7.35058
C          1.42954       -2.65541        7.58123
C          1.87940       -3.46572        8.57195
N          2.18344       -3.05368        9.92354
O          3.02203       -3.73260       10.53296
O          1.57636       -2.08796       10.40535
C          1.92315       -4.84455        8.16494
C          1.45562       -4.92356        6.91433
C          1.15096       -3.57656        6.42907
C          0.70512       -3.28371        5.18275
C          0.58780       -1.93194        4.63371
C          0.01589       -2.02231        3.42353
C         -0.25583       -3.41721        3.14188
N         -0.96417       -3.85446        1.95016
O         -1.34427       -2.96450        1.17528
O         -1.16660       -5.06194        1.76868
C          0.20052       -4.22600        4.12536
C          0.08573       -5.67009        4.15357
C          1.11493       -6.52892        4.05977
C          0.94242       -7.95215        4.17145
N          1.35704       -8.86202        3.19725
C          2.04753       -8.54058        1.96508
C          3.56004       -8.55582        2.13356
C          1.04181      -10.18905        3.55555
O          1.23154      -11.23060        2.96221
C          0.41193      -10.02113        4.87321
C          0.39247       -8.62119        5.19162
C         -0.21759       -8.47857        6.52907
O         -0.38852       -7.45498        7.15819
N         -0.50981       -9.80883        6.88643
C         -1.07763      -10.15663        8.17565
C         -2.59360      -10.04687        8.17963
C         -0.14417      -10.69562        5.87685
C         -0.29012      -12.11250        5.95320
C         -1.46876      -12.74103        6.06933
C         -1.56246      -14.15335        6.17381
S         -0.31147      -15.09543        6.86565
C         -1.15004      -16.57708        6.63591
C         -2.38249      -16.34400        6.05099
C         -2.62289      -14.95656        5.80588
C         -3.32472      -17.35958        5.69519
N         -4.10360      -18.17596        5.40731
C         -0.46113      -17.74707        7.05877
C         -1.09083      -18.84888        7.49086
C         -0.36654      -20.02333        7.97469
C          0.91967      -20.40293        7.53781
C          1.59155      -21.53988        8.02453
F          2.81687      -21.79176        7.54192
C          1.06127      -22.41723        8.97424
C         -0.23459      -22.10257        9.43967
C         -0.97637      -20.88415        8.93417
N         -2.19198      -20.75198        9.49463
S         -2.38213      -22.02788       10.53787
N         -0.93017      -22.80860       10.34352
H          0.41756        2.67157        8.51115
H         -1.38474        0.92528        8.66755
H          2.23702       -5.67331        8.78001
H          1.37526       -5.85017        6.39150
H          0.96026       -1.01842        5.06522
H         -0.16954       -1.20973        2.73607
H         -0.93368       -6.05173        4.22929
H          2.13509       -6.16874        3.95072
H          1.71083       -7.56459        1.60223
H          1.77036       -9.28456        1.20925
H          3.87912       -7.91187        2.95932
H          4.04613       -8.20424        1.21795
H          3.92324       -9.56809        2.34158
H         -0.67460       -9.46512        8.92524
H         -0.75696      -11.16245        8.46847
H         -2.91234       -9.02452        7.95557
H         -2.99464      -10.33115        9.15673
H         -3.05076      -10.69606        7.43039
H          0.64269      -12.66633        5.86874
H         -2.39791      -12.17989        6.06048
H         -3.53161      -14.56789        5.35727
H          0.62677      -17.69583        7.07713
H         -2.17454      -18.90996        7.54835
H          1.43864      -19.81037        6.78597
H          1.60979      -23.28176        9.32162
