96

C         -1.43469        2.03089        5.31732
N         -2.11152        1.09055        4.61579
N         -1.91378       -0.31651        4.78794
C         -1.03444       -0.84467        5.67562
C         -0.25822        0.07428        6.41608
C         -0.46957        1.55485        6.22271
N          0.34505        2.30804        6.98039
S          1.27782        1.25694        7.86352
N          0.70412       -0.20314        7.31617
C         -0.97580       -2.28091        5.86532
C         -1.60472       -2.95215        6.86154
N         -2.39389       -2.35352        7.91365
O         -2.90022       -1.24136        7.71917
O         -2.53274       -3.01746        8.94946
C         -1.55674       -4.37559        6.65522
C         -0.91480       -4.61285        5.50432
C         -0.41950       -3.34365        4.96789
C          0.38466       -3.22204        3.88475
C          0.89211       -1.95416        3.35566
C          1.56394       -2.21325        2.22374
C          1.54583       -3.64154        1.98898
N          2.17755       -4.25239        0.83273
O          1.96952       -5.44745        0.58700
O          2.88377       -3.51295        0.13196
C          0.89910       -4.30461        2.97554
C          0.76873       -5.74494        3.08542
C          1.31999       -6.48886        4.06042
C          1.08167       -7.90134        4.19233
N          1.45286       -8.85378        3.24545
C          2.26040       -8.66420        2.05832
C          1.52324       -9.05777        0.78547
C          1.07910      -10.14611        3.64544
O          1.26917      -11.20070        3.07993
C          0.40663       -9.92910        4.93303
C          0.46554       -8.51634        5.21106
C         -0.18117       -8.30160        6.51819
O         -0.31467       -7.25012        7.10093
N         -0.56731       -9.60467        6.90144
C         -1.29243       -9.83302        8.14082
C         -2.79812       -9.68383        7.98054
C         -0.21114      -10.55443        5.93877
C         -0.39934      -11.97528        6.10355
C         -0.52732      -12.86010        5.09843
C         -0.66439      -14.29124        5.27574
C         -1.67713      -14.92846        5.91226
N         -2.80387      -14.26636        6.52346
O         -3.27192      -13.25800        5.97894
O         -3.25063      -14.78264        7.55739
C         -1.53624      -16.36228        5.86949
C         -0.44119      -16.66190        5.15528
C          0.18480      -15.40646        4.71969
C          1.31725      -15.31861        3.98197
C          2.05281      -14.08060        3.73602
C          3.10452      -14.34893        2.94922
C          3.10559      -15.76403        2.67546
N          4.11624      -16.40409        1.86050
O          3.81737      -17.42232        1.22395
O          5.22840      -15.85701        1.82800
C          2.08399      -16.40029        3.29212
C          1.84254      -17.82116        3.22879
C          0.83161      -18.38981        2.55338
C          0.62160      -19.82916        2.44464
N         -0.64896      -20.29286        2.31308
N         -0.98315      -21.68385        2.21519
C         -0.06031      -22.67386        2.22488
C          1.28107      -22.27165        2.33651
C          1.64322      -20.81263        2.45347
N          2.97398      -20.62923        2.55658
S          3.68740      -22.11884        2.47487
N          2.34823      -23.08928        2.35511
H         -1.65878        3.07110        5.13554
H         -2.02290       -5.11744        7.28722
H         -0.81624       -5.59436        5.08539
H          0.77396       -0.96921        3.77201
H          2.06249       -1.49253        1.59224
H          0.17089       -6.22269        2.30847
H          1.88891       -6.02136        4.86129
H          3.14339       -9.30629        2.16454
H          2.61798       -7.63505        1.99117
H          1.18896      -10.10039        0.81426
H          2.18054       -8.95058       -0.08223
H          0.63745       -8.43362        0.63519
H         -0.95071       -9.09192        8.87348
H         -1.04559      -10.81648        8.54944
H         -3.06222       -8.68197        7.62555
H         -3.29711       -9.84188        8.94279
H         -3.19710      -10.41045        7.26635
H         -0.40546      -12.33992        7.12829
H         -0.52773      -12.53592        4.05947
H         -2.20058      -17.06129        6.35461
H         -0.07580      -17.66244        5.00499
H          1.85168      -13.11629        4.16090
H          3.85111      -13.64760        2.60823
H          2.59205      -18.42613        3.73664
H          0.07746      -17.78096        2.05966
H         -0.39537      -23.69668        2.14543
