73

C         -0.37008      -13.80517        2.08661
C         -1.15676      -13.60776        0.95368
F         -2.10572      -14.51865        0.68681
C         -1.01666      -12.51157        0.07483
F         -1.85494      -12.49436       -0.96720
C         -0.07200      -11.47353        0.23064
C          0.76452      -11.62252        1.38349
C          0.60358      -12.81347        2.31544
N          1.46556      -12.80599        3.34153
S          2.39336      -11.44479        3.17686
N          1.74726      -10.79398        1.79288
C          0.06624      -10.31977       -0.66930
N          1.03009       -9.31692       -0.48287
C          0.91819       -8.30719       -1.42277
C         -0.11166       -8.66733       -2.23239
C         -0.61293       -9.89612       -1.79239
S         -1.92945      -10.37227       -2.78377
O         -1.46239      -11.52532       -3.52201
O         -3.09450      -10.33771       -1.92596
C         -1.82289       -8.89382       -3.76394
C         -0.80195       -8.11538       -3.33880
C         -2.76633       -8.62940       -4.81152
C         -3.62912       -7.60349       -4.77114
C         -4.58830       -7.38345       -5.79626
S         -5.20217       -5.76676       -6.05777
C         -6.23252       -6.24811       -7.35535
C         -6.12208       -7.59280       -7.55369
C         -5.20460       -8.21348       -6.69416
C         -5.19273       -9.59245       -7.01859
C         -6.05355       -9.85789       -8.02731
C         -6.71735       -8.55464       -8.43761
O         -7.55022       -8.36607       -9.30354
C         -6.26798      -11.13228       -8.65121
C         -7.41593      -11.47655       -9.24990
C         -7.56620      -12.72844       -9.87604
N         -8.48384      -12.83045      -10.91702
C         -8.49120      -14.11385      -11.44504
C         -7.58577      -14.82505      -10.71803
C         -7.02411      -13.98032       -9.76262
S         -5.87657      -14.81599       -8.81143
O         -4.60154      -14.20476       -9.14063
O         -6.43814      -14.86152       -7.48317
C         -6.14370      -16.32691       -9.71589
C         -7.07758      -16.14501      -10.68036
C         -5.44690      -17.53655       -9.38528
C         -4.67412      -18.20045      -10.25860
C         -3.94569      -19.43037       -9.93480
C         -3.44915      -19.78644       -8.66358
F         -3.64178      -18.95087       -7.62880
C         -2.74149      -20.97940       -8.40225
F         -2.32814      -21.21219       -7.14692
C         -2.43968      -21.93704       -9.37452
C         -2.88487      -21.63420      -10.67872
C         -3.64843      -20.35866      -10.97625
N         -3.98020      -20.25483      -12.27634
S         -3.39644      -21.60872      -13.03718
N         -2.69533      -22.40280      -11.76056
H         -0.50728      -14.65963        2.73536
H          1.70259       -9.32563        0.27719
H          1.57201       -7.44567       -1.39584
H         -0.54690       -7.15906       -3.77573
H         -2.75523       -9.34781       -5.62569
H         -3.61742       -6.91132       -3.93094
H         -6.85165       -5.53495       -7.88233
H         -4.59014      -10.34034       -6.52008
H         -5.42063      -11.81435       -8.62296
H         -8.25496      -10.78333       -9.26605
H         -9.04272      -12.06161      -11.26594
H         -9.13590      -14.36454      -12.27621
H         -7.42066      -16.92263      -11.35027
H         -5.57116      -17.86964       -8.35634
H         -4.55802      -17.83110      -11.27751
H         -1.89434      -22.84098       -9.13825
