95

C          3.36929        1.20953       -2.85630
C          3.28192        0.63614       -4.06523
C          2.18822        1.04789       -4.95432
C          1.85875        0.34790       -6.07036
C          0.75170        0.72173       -6.88690
N         -0.17068        1.04210       -7.51392
C          2.54616       -0.84356       -6.44445
N          3.11173       -1.81559       -6.73135
C          1.47919        2.27962       -4.56898
C          1.63869        2.77093       -3.32432
O          2.50566        2.18680       -2.40137
C          0.98227        3.96758       -2.84086
C          1.60846        5.08131       -2.38392
N          3.03965        5.26045       -2.31385
O          3.45721        5.99652       -1.40868
O          3.74902        4.73469       -3.18067
C          0.68254        6.13222       -2.03913
C         -0.55754        5.69827       -2.29733
C         -0.47622        4.33139       -2.81867
C         -1.54688        3.58702       -3.17794
C         -1.52556        2.13901       -3.39957
C         -2.74906        1.75830       -3.79493
C         -3.59886        2.92748       -3.83041
N         -4.96982        2.88043       -4.28642
O         -5.78918        3.67467       -3.80625
O         -5.24240        2.00677       -5.12449
C         -2.95241        4.04468       -3.42687
C         -3.52344        5.37877       -3.40434
C         -3.10799        6.39714       -4.17538
C         -3.76283        7.67272       -4.23662
N         -3.95225        8.55394       -3.16418
C         -3.42226        8.45183       -1.82238
C         -2.04791        9.09302       -1.68004
C         -4.64355        9.71140       -3.57054
O         -4.94674       10.69384       -2.92277
C         -4.88887        9.45764       -4.99645
C         -4.28775        8.20128       -5.34705
C         -4.48065        8.00125       -6.79540
O         -4.05804        7.08873       -7.47444
N         -5.19519        9.16432       -7.18145
C         -5.50743        9.44333       -8.56767
C         -6.82686        8.83927       -9.01757
C         -5.43881        9.99033       -6.08254
C         -6.08978       11.26098       -6.16270
C         -6.74388       11.86242       -5.15196
C         -7.35582       13.14248       -5.28970
S         -7.27276       13.96274       -6.79301
C         -8.22839       15.29791       -6.31092
C         -8.58108       15.13663       -4.98221
C         -8.06070       13.91918       -4.38669
C         -8.27566       13.55966       -3.04486
C         -9.05009       14.50823       -2.33096
C         -9.29417       14.23172       -0.93785
N         -9.47698       13.98443        0.18101
C         -9.57480       15.69274       -2.93425
C        -10.37469       16.61203       -2.14939
N        -11.02635       17.36428       -1.53610
C         -9.37376       16.05404       -4.28375
C         -8.47086       16.32894       -7.27064
C         -8.53499       16.07889       -8.59533
C         -8.75072       17.17864       -9.54168
C         -8.77505       16.96842      -10.88195
C         -9.00279       18.03052      -11.80699
N         -9.18743       18.90107      -12.54925
C         -8.57662       15.67095      -11.45252
N         -8.40763       14.61224      -11.88881
C         -8.95248       18.50553       -8.94803
C         -8.87346       18.64133       -7.61737
O         -8.60530       17.60797       -6.74735
H          4.12788        0.98363       -2.11926
H          4.01113       -0.11205       -4.36001
H          0.83196        2.78690       -5.27952
H          0.95794        7.08771       -1.61814
H         -1.45121        6.24558       -2.06624
H         -0.71431        1.45958       -3.19627
H         -3.08188        0.75126       -3.99855
H         -4.39230        5.50906       -2.75808
H         -2.29339        6.25748       -4.88457
H         -3.39329        7.40471       -1.52155
H         -4.11420        8.96092       -1.14010
H         -1.34423        8.69487       -2.41646
H         -1.64331        8.89674       -0.68154
H         -2.09087       10.17905       -1.81872
H         -4.69970        9.03258       -9.18366
H         -5.50995       10.52243       -8.75231
H         -6.82716        7.75137       -8.90058
H         -7.00194        9.06862      -10.07459
H         -7.66307        9.24442       -8.44022
H         -5.99382       11.73578       -7.12892
H         -6.82667       11.37733       -4.18543
H         -7.89464       12.66090       -2.56918
H         -9.80088       16.95240       -4.71725
H         -8.42815       15.06804       -8.97874
H         -9.16326       19.37564       -9.55934
H         -9.01086       19.57032       -7.08333
