97

C          2.39675        2.88799       -6.49920
C          2.55601        1.52843       -6.20248
C          1.44530        0.67541       -6.09437
C          0.16798        1.22705       -6.26598
C          0.05389        2.57692       -6.53482
C          1.12590        3.45094       -6.67380
O         -1.27338        2.87464       -6.61333
C         -1.92809        1.66905       -6.41253
N         -1.08375        0.66794       -6.18725
C         -3.34444        1.56395       -6.43123
C         -4.06837        1.38552       -7.55911
N         -3.56084        1.33502       -8.91585
O         -2.33871        1.38020       -9.10340
O         -4.39973        1.25496       -9.81945
C         -5.47029        1.19477       -7.25977
C         -5.63613        1.25694       -5.92938
C         -4.34581        1.57115       -5.31614
C         -4.17008        1.82226       -3.99275
C         -2.87787        2.06664       -3.34693
C         -3.08240        2.12432       -2.02095
C         -4.49941        1.98967       -1.76948
N         -5.07658        2.12797       -0.45034
O         -6.09486        1.47715       -0.17735
O         -4.48214        2.87089        0.34258
C         -5.21287        1.86796       -2.91140
C         -6.66457        1.89578       -2.99743
C         -7.37416        2.82470       -3.65950
C         -8.81204        2.80957       -3.76605
N         -9.69052        2.90494       -2.68202
C         -9.36044        3.19393       -1.30388
C         -9.37465        4.68946       -1.02742
C        -11.03702        2.92679       -3.10229
O        -12.05223        3.07966       -2.45351
C        -10.92307        2.78682       -4.55524
C         -9.52661        2.73751       -4.89473
C         -9.43473        2.65548       -6.36349
O         -8.41486        2.61046       -7.02655
N        -10.78689        2.65462       -6.76978
C        -11.18514        2.62957       -8.16722
C        -10.72714        1.37265       -8.89351
C        -11.64569        2.75011       -5.67164
C        -13.06854        2.87317       -5.78435
C        -13.95263        2.05811       -5.18195
C        -15.36769        2.19096       -5.36251
S        -15.99026        2.76216       -6.85092
C        -17.63815        2.59255       -6.39820
C        -17.72168        2.08181       -5.10417
C        -16.41461        1.87081       -4.50636
C        -16.26249        1.36701       -3.14115
O        -15.17838        1.18337       -2.59893
C        -17.51335        1.06743       -2.39553
C        -17.42333        0.57536       -1.08268
C        -18.57921        0.28648       -0.35270
C        -19.83284        0.48982       -0.92241
C        -19.93109        0.97355       -2.22612
C        -18.77369        1.25959       -2.97117
C        -18.93675        1.74665       -4.36353
O        -20.07139        1.81914       -4.82197
C        -18.65329        3.01603       -7.40315
C        -19.86217        3.62315       -7.00912
C        -20.84168        4.04536       -7.92912
C        -20.57421        3.89602       -9.29026
C        -19.37289        3.32386       -9.66792
C        -18.40011        2.86449       -8.78677
O        -19.33237        3.29902      -11.03220
C        -20.52250        3.85657      -11.39463
N        -21.30227        4.22956      -10.40246
H          3.27809        3.52093       -6.59299
H          3.55640        1.12610       -6.05077
H          1.56836       -0.37841       -5.87013
H          0.98355        4.50088       -6.89570
H         -6.24779        0.99986       -7.98205
H         -6.57884        1.08431       -5.44352
H         -1.91678        2.18874       -3.81753
H         -2.33942        2.29459       -1.25563
H         -7.18653        1.10194       -2.46105
H         -6.86863        3.60016       -4.23444
H         -8.39518        2.75917       -1.04120
H        -10.11549        2.71327       -0.67055
H         -8.65676        5.21634       -1.66397
H         -9.12137        4.88559        0.01832
H        -10.36492        5.11616       -1.22183
H        -10.74587        3.50864       -8.65166
H        -12.27277        2.71077       -8.25808
H         -9.63695        1.28115       -8.89155
H        -11.05507        1.39984       -9.93776
H        -11.14043        0.47339       -8.42590
H        -13.39884        3.70236       -6.40531
H        -13.59774        1.25838       -4.53408
H        -16.45004        0.41483       -0.61974
H        -18.50068       -0.09488        0.66334
H        -20.73550        0.27173       -0.35517
H        -20.91882        1.12541       -2.66060
H        -20.08220        3.78969       -5.95779
H        -21.77400        4.48261       -7.59055
H        -17.48984        2.42776       -9.17938
H        -20.71109        3.93827      -12.45527
