90

C          1.31869        1.71733       -2.51735
C          1.36417        0.45233       -1.97682
C          1.79722        0.17373       -0.62793
O          2.55633        0.90857       -0.01423
O          1.29540       -0.94722       -0.04782
C          0.95041       -0.37451       -3.05687
N          0.65393        0.34712       -4.14450
O          0.89163        1.66220       -3.79893
C          0.85035       -1.78880       -3.02548
C         -0.25877       -2.48792       -2.71624
C          0.09626       -3.90854       -2.66342
C          1.52356       -3.96901       -3.01214
C          1.94771       -2.71395       -3.23114
C          2.38606       -5.09639       -3.06525
N          3.11313       -5.98312       -3.07498
C         -0.75531       -4.90758       -2.34947
C         -0.43993       -6.33437       -2.30870
C         -1.55385       -7.05400       -2.01894
C         -2.63445       -6.07420       -1.88633
C         -2.17192       -4.81801       -2.00676
C         -2.96287       -3.67305       -1.75029
N         -3.59892       -2.73346       -1.49760
C         -1.52244       -8.50405       -1.85393
N         -2.18175       -9.28988       -0.88085
C         -3.19386       -9.00455        0.10899
C         -3.15966       -7.67336        0.80949
C         -1.84594      -10.66216       -1.01242
O         -2.25332      -11.61690       -0.37980
C         -0.91337      -10.68123       -2.13381
C         -0.76359       -9.33329       -2.59836
C          0.17901       -9.38292       -3.73093
O          0.50840       -8.45221       -4.44220
N          0.55102      -10.75702       -3.79605
C          1.44529      -11.17164       -4.86126
C          2.37713      -12.33278       -4.57691
C         -0.16875      -11.52077       -2.85968
C         -0.07058      -12.95220       -2.64088
C         -1.06105      -13.74726       -2.18954
C         -0.96700      -15.17109       -1.90869
C         -0.24170      -15.80961       -0.95054
N          0.65317      -15.19121        0.00235
O          0.80864      -15.78453        1.07985
O          1.28022      -14.18075       -0.33551
C         -0.37277      -17.24885       -1.02611
C         -1.13965      -17.55053       -2.08047
C         -1.53670      -16.29743       -2.73297
C         -2.21681      -16.21737       -3.89997
C         -3.00718      -15.07694       -4.35943
C         -3.46310      -15.35406       -5.59309
C         -2.98444      -16.66536       -5.97967
N         -3.23096      -17.25410       -7.28874
O         -3.88676      -16.57489       -8.08977
O         -2.78179      -18.38183       -7.54235
C         -2.27716      -17.24215       -4.98439
C         -1.71103      -18.56821       -5.01291
C         -0.43564      -18.88040       -4.76706
C          0.07233      -20.21034       -4.66524
C         -0.42061      -21.41782       -4.16172
C         -1.68953      -21.77064       -3.56778
O         -1.78585      -22.52294       -2.60951
O         -2.79260      -21.28745       -4.18145
C          0.68002      -22.30269       -4.20654
N          1.76207      -21.73538       -4.72337
O          1.39606      -20.43970       -4.99377
H          1.53642        2.70426       -2.13554
H          0.60409       -1.40491       -0.55445
H         -1.21270       -2.03103       -2.51005
H          2.94979       -2.40987       -3.50439
H          0.53603       -6.75936       -2.47827
H         -3.66664       -6.29784       -1.67065
H         -3.10464       -9.76585        0.89787
H         -4.17118       -9.18359       -0.35605
H         -2.14525       -7.40432        1.10985
H         -3.80902       -7.68129        1.68948
H         -3.57442       -6.90214        0.17672
H          2.07338      -10.30820       -5.12222
H          0.83524      -11.37807       -5.74787
H          2.88655      -12.20612       -3.61638
H          3.13737      -12.41636       -5.35991
H          1.83369      -13.27991       -4.58032
H          0.91074      -13.39470       -2.76393
H         -2.05050      -13.33815       -2.00010
H          0.05488      -17.94872       -0.32227
H         -1.46712      -18.54725       -2.32922
H         -3.31026      -14.23119       -3.76363
H         -4.14064      -14.75620       -6.18629
H         -2.44896      -19.30127       -5.28284
H          0.29139      -18.08505       -4.60225
H         -2.60868      -21.11394       -5.12232
H          0.72561      -23.33183       -3.87480
