90

C         -8.19899        6.42924       -6.93822
C         -8.50496        5.56938       -5.88760
C         -9.67997        5.80352       -5.11194
N        -10.65481        6.07032       -4.54102
C         -7.52146        4.56231       -5.80176
C         -6.55747        4.68185       -6.74747
S         -6.75523        5.98503       -7.77443
S         -5.36361        3.49560       -6.68968
C         -6.15253        2.81075       -5.36945
C         -7.27416        3.45685       -4.98474
C         -7.90263        2.86581       -3.86883
C         -9.07750        3.31948       -3.19934
N        -10.03197        3.64793       -2.61929
C         -7.18431        1.73626       -3.44796
S         -5.77942        1.47584       -4.44869
C         -7.44764        0.81362       -2.35722
S         -9.03259        0.42269       -1.85516
C         -8.50808       -0.66011       -0.61844
C         -7.12436       -0.74378       -0.63283
C         -6.52479        0.10141       -1.61736
C         -6.33751       -1.57917        0.22311
N         -5.70503       -2.25734        0.92260
C         -9.53704       -1.27334        0.15813
C         -9.30445       -2.14653        1.14742
C        -10.34902       -2.74171        1.92017
N        -10.43046       -2.62622        3.30745
C         -9.54075       -1.84694        4.15218
C         -9.59753       -0.35005        3.86906
C        -11.53380       -3.34267        3.81646
O        -11.91870       -3.48094        4.95882
C        -12.15240       -3.89052        2.59463
C        -11.35976       -3.48594        1.47107
C        -11.96461       -4.04693        0.25192
O        -11.56229       -3.93340       -0.88748
N        -13.09908       -4.71752        0.75435
C        -14.02584       -5.41669       -0.11346
C        -15.11445       -4.49960       -0.65295
C        -13.17890       -4.60965        2.14294
C        -14.17485       -5.22812        2.95769
C        -15.49153       -4.97971        2.89851
N        -16.42402       -5.58903        3.70141
C        -17.80240       -5.32561        3.58268
C        -18.42962       -4.42551        2.57380
C        -18.45316       -6.04143        4.50922
C        -17.48458       -6.78795        5.26056
C        -16.15158       -6.52843        4.72472
O        -15.12625       -7.04276        5.12471
C        -18.08356       -7.49845        6.20886
C        -17.40880       -8.45148        7.13112
N        -19.45526       -7.26147        6.11690
C        -19.78539       -6.36214        5.07288
O        -20.85026       -5.88628        4.73684
C        -20.39430       -7.78154        6.98544
C        -21.60359       -8.43901        6.75176
C        -22.04595       -8.75532        5.43012
N        -22.34892       -9.02305        4.34311
C        -22.17778       -8.80874        7.99051
C        -21.47639       -8.35710        9.05682
S        -20.11292       -7.49299        8.66505
S        -22.11293       -8.76225       10.55887
C        -23.35198       -9.58169        9.77021
C        -23.28904       -9.54130        8.41591
C        -24.34030      -10.24816        7.80096
C        -24.63687      -10.46198        6.42147
N        -24.94875      -10.68955        5.32803
C        -25.16957      -10.79512        8.77716
S        -24.64669      -10.43970       10.38277
H         -8.75049        7.30303       -7.26295
H         -5.45271        0.16721       -1.76662
H        -10.57065       -1.00042       -0.06368
H         -8.31467       -2.44998        1.46004
H         -8.52071       -2.22448        4.02137
H         -9.81445       -2.01185        5.20057
H         -9.29255       -0.11119        2.84714
H         -8.92118        0.19032        4.53801
H        -10.61098        0.03894        4.00798
H        -14.46119       -6.26945        0.41779
H        -13.46178       -5.82066       -0.96213
H        -15.72449       -4.07277        0.14471
H        -15.78386       -5.05359       -1.31727
H        -14.68648       -3.65976       -1.20863
H        -13.75889       -5.91770        3.69099
H        -15.86225       -4.24494        2.19796
H        -18.08149       -4.65658        1.56189
H        -18.20951       -3.37569        2.79238
H        -19.51957       -4.53945        2.56550
H        -16.37300       -8.63568        6.82657
H        -17.91565       -9.42094        7.13531
H        -17.36761       -8.05478        8.14827
H        -26.06253      -11.39130        8.63621
