78

C         -0.41184       -7.00761        1.89511
C         -0.15754       -7.15739        0.54670
N         -0.58681       -6.26741       -0.37953
C         -1.23682       -5.15887        0.07107
C         -1.47962       -5.03727        1.44450
N         -1.08900       -5.95020        2.37869
C         -1.63602       -4.14208       -0.95476
C         -2.86755       -3.47110       -0.84760
C         -3.26076       -2.53141       -1.83435
N         -4.45628       -1.89711       -1.71198
C         -5.21408       -2.12281       -0.62466
C         -4.82972       -3.02055        0.32880
N         -3.67905       -3.71020        0.21449
C         -2.40317       -2.24611       -2.91669
C         -1.16343       -2.89627       -3.02058
C         -0.77614       -3.84327       -2.03519
N          0.44082       -4.43626       -2.13404
C          1.22457       -4.16740       -3.19216
C          0.84178       -3.26740       -4.14398
N         -0.32893       -2.61189       -4.05263
C         -2.79592       -1.19601       -3.92091
S         -3.18803        0.39063       -3.31064
C         -3.65129        1.01160       -4.84459
C         -3.34065        0.09282       -5.82859
C         -2.85624       -1.17146       -5.30902
C         -2.48363       -2.23529       -6.14978
C         -2.56219       -1.92765       -7.53784
C         -2.06025       -2.95560       -8.46709
C         -0.79822       -2.95533       -8.90281
C         -3.06426       -0.67255       -8.04694
C         -3.13692       -0.42531       -9.53841
C         -3.48030        0.38205       -7.19311
C         -4.17786        2.33439       -4.93092
C         -5.50781        2.53912       -4.97296
C         -6.22323        3.85245       -5.13408
C         -5.70349        4.88500       -5.93084
C         -6.46346        6.06839       -6.13097
N         -5.97429        7.02411       -6.95581
C         -4.75820        6.87322       -7.50990
C         -4.02163        5.74430       -7.29217
N         -4.49229        4.74231       -6.52761
C         -7.71990        6.22636       -5.49883
C         -8.23476        5.17863       -4.71198
C         -7.49225        3.97934       -4.54503
N         -8.00987        2.95192       -3.82326
C         -9.22995        3.09619       -3.27470
C         -9.94096        4.25482       -3.41926
N         -9.45181        5.29570       -4.12199
C         -8.49901        7.49371       -5.68540
C         -9.89030        7.55939       -5.81968
N        -10.58816        8.70868       -6.04428
C         -9.83778        9.82112       -6.15580
C         -8.46511        9.79098       -6.02240
N         -7.78479        8.65202       -5.75431
H         -0.07084       -7.73440        2.62383
H          0.41316       -7.99669        0.16715
H         -2.00067       -4.18416        1.86488
H         -6.12924       -1.54889       -0.54695
H         -5.42216       -3.21195        1.21550
H          2.16313       -4.70490       -3.24330
H          1.45380       -3.04376       -5.00877
H         -2.11121       -3.19027       -5.80296
H         -2.77420       -3.71222       -8.78299
H         -0.08415       -2.19906       -8.59299
H         -0.45033       -3.71678       -9.59779
H         -3.65731       -1.24659      -10.04167
H         -2.13158       -0.31380       -9.95646
H         -3.69569        0.48989       -9.76384
H         -3.84366        1.32964       -7.57337
H         -3.46237        3.14703       -4.99804
H         -6.16918        1.67702       -4.87876
H         -4.40206        7.68987       -8.11992
H         -3.03459        5.60721       -7.71555
H         -9.61308        2.24821       -2.72069
H        -10.92561        4.38507       -2.98571
H        -10.51795        6.67711       -5.76543
H        -10.37050       10.74211       -6.36317
H         -7.86304       10.68407       -6.14169
