65

C         -0.68739       -9.55489       -0.87175
C         -1.89622       -9.12815       -1.39451
N         -2.30353       -7.83467       -1.34230
C         -1.45696       -6.97278       -0.72008
C         -0.23838       -7.41535       -0.20648
N          0.17437       -8.70786       -0.27164
C         -1.91940       -5.58379       -0.63327
S         -1.41734       -4.55358        0.68301
C         -2.31779       -3.19555        0.11544
C         -2.98071       -3.52810       -1.02883
C         -2.76467       -4.85798       -1.42910
C         -3.50740       -5.06326       -2.61765
C         -4.17772       -3.94026       -2.96547
C         -3.85580       -2.85889       -1.95153
O         -4.24579       -1.70507       -1.93511
C         -4.99796       -3.72867       -4.12223
C         -6.07228       -4.47843       -4.41246
C         -6.82854       -4.27077       -5.59606
S         -8.53256       -4.65240       -5.61035
C         -8.73623       -4.18347       -7.25817
C         -7.53901       -3.77671       -7.76875
C         -6.48721       -3.83019       -6.84842
C         -5.31528       -3.41275       -7.52681
C         -5.58645       -3.09017       -8.81534
C         -7.07750       -3.31168       -9.04192
O         -7.72417       -3.15095      -10.05528
C         -4.64388       -2.62317       -9.79586
C         -4.95667       -2.29151      -11.05740
C         -3.96427       -1.81043      -11.94918
O         -2.64023       -1.68551      -11.62599
C         -1.93293       -1.17746      -12.68340
C         -2.83294       -0.94763      -13.71784
C         -4.11398       -1.37028      -13.25050
N         -2.58136       -0.39628      -15.02251
O         -1.43073       -0.10809      -15.34789
O         -3.57266       -0.26771      -15.75323
C         -0.52384       -0.90660      -12.56815
O          0.01694        0.14754      -13.24666
C          1.35068        0.25049      -12.99709
C          1.67008       -0.75800      -12.10949
C          0.48351       -1.50369      -11.80738
C          0.36280       -2.65514      -10.89929
O         -0.70513       -3.25784      -10.75966
C          1.62081       -3.14796      -10.17373
F          2.53742       -2.17267       -9.91256
F          1.34207       -3.71231       -8.96398
F          2.28008       -4.09893      -10.89478
C          2.19206        1.24745      -13.55148
C          1.91712        1.80907      -14.73432
H         -0.37774      -10.59316       -0.92039
H         -2.57792       -9.82477       -1.87012
H          0.46329       -6.74325        0.27453
H         -2.30775       -2.25365        0.64760
H         -3.51055       -5.99208       -3.17339
H         -4.70218       -2.88900       -4.74578
H         -6.40108       -5.25586       -3.72568
H         -9.69752       -4.24249       -7.75316
H         -4.33528       -3.36508       -7.07294
H         -3.61115       -2.53563       -9.45781
H         -5.97337       -2.36197      -11.43238
H         -5.04688       -1.33657      -13.79973
H          2.67167       -0.91482      -11.73260
H          3.07741        1.54474      -12.99942
H          1.05371        1.51916      -15.32873
H          2.57023        2.57165      -15.14558
