71

C         -3.96633       -0.44487       -3.84271
S         -3.03793        1.02172       -3.85984
C         -3.73210        1.63204       -2.37732
C         -4.64117        0.72187       -1.96491
C         -4.75208       -0.39566       -2.75659
N         -5.66512       -1.28481       -2.28516
N         -6.22635       -0.80279       -1.12850
C         -5.60222        0.40679       -0.94413
C         -3.36844        2.88771       -1.78771
O         -4.25366        3.59676       -1.01135
C         -3.66499        4.76357       -0.58234
C         -2.37227        4.77830       -1.07936
C         -2.18418        3.59847       -1.83191
C         -0.97152        3.22569       -2.48180
N          0.02996        2.95002       -2.99344
C         -4.35366        5.71106        0.22276
C         -3.75031        6.82040        0.67518
C         -4.38388        7.82501        1.48385
C         -3.76759        8.94437        1.94856
C         -4.75139        9.61383        2.67728
N         -4.78524       10.75803        3.38430
C         -6.07383       10.87789        3.89408
C         -6.82039        9.77449        3.47534
C         -5.96264        8.99296        2.70810
C         -5.87562        7.74544        1.92644
C         -6.36040       12.01127        4.68596
C         -7.57476       12.17563        5.22687
C         -7.89480       13.29442        6.06153
C         -7.83572       14.60784        5.72001
C         -8.20450       15.28478        6.88331
N         -8.31539       16.58347        7.22432
C         -8.67428       16.61972        8.56853
C         -8.80453       15.30448        9.02331
C         -8.49886       14.48097        7.94347
C         -8.34895       13.07014        7.52886
C         -8.82695       17.88768        9.18492
C         -9.15963       17.96596       10.48214
C         -9.32788       19.22277       11.12013
S        -10.88955       19.95023       11.10873
C        -10.35848       21.26054       12.03836
N        -11.27382       22.30214       12.42138
O        -10.80923       23.20573       13.13062
O        -12.44437       22.23434       12.02552
C         -9.02247       21.18160       12.36164
C         -8.41652       19.99812       11.82771
C         -7.04488       19.61772       12.01068
C         -6.02102       20.45974       12.20613
H         -3.87164       -1.20483       -4.60533
H         -5.93973       -2.18188       -2.66836
H         -5.87149        0.99633       -0.07680
H         -1.63821        5.55431       -0.91392
H         -5.39225        5.49377        0.45254
H         -2.70789        7.02292        0.44235
H         -2.74514        9.25660        1.79809
H         -4.02464       11.40931        3.52619
H         -7.85691        9.57573        3.71008
H         -6.54479        7.76157        1.06109
H         -6.05758        6.86384        2.54764
H         -5.58004       12.74520        4.87566
H         -8.36738       11.44493        5.09329
H         -7.55701       15.03224        4.76791
H         -8.15387       17.38186        6.62423
H         -9.07429       14.99481       10.02284
H         -9.29401       12.52152        7.57435
H         -7.57305       12.55782        8.10579
H         -8.67359       18.79125        8.59900
H         -9.31524       17.08053       11.09050
H         -8.51013       21.92042       12.96741
H         -6.81180       18.55345       11.97027
H         -6.14628       21.53696       12.22904
H         -5.01181       20.07722       12.32722
