63

C          1.57807        1.76329       -1.45197
S          0.13186        2.13674       -2.34045
C         -0.68388        2.84688       -0.96957
C          0.17251        2.77955        0.07532
C          1.38408        2.18937       -0.19433
N          2.20051        2.13689        0.89135
N          1.56715        2.69754        1.97281
C          0.34640        3.07987        1.47177
C         -2.00765        3.40090       -1.02305
O         -2.37531        4.43029       -0.18810
C         -3.68892        4.76231       -0.41116
C         -4.17137        3.92238       -1.39810
C         -3.10869        3.07863       -1.79846
C         -3.20159        2.06583       -2.79990
N         -3.31879        1.25879       -3.61952
C         -4.39277        5.77456        0.28788
C         -3.76100        6.85237        0.77256
C         -4.42610        7.90071        1.50460
C         -3.82619        9.01736        1.99677
C         -4.83522        9.68661        2.69488
N         -4.87485       10.79532        3.45861
C         -6.14599       10.84974        4.02244
C         -6.90541        9.79719        3.50921
C         -6.04836        9.06807        2.68697
C         -5.94219        7.83929        1.87701
C         -6.39065       11.85996        4.97996
C         -7.29733       11.66814        5.95096
C         -7.48797       12.65633        6.95495
O         -6.75989       13.82098        6.98779
C         -7.13561       14.58809        8.05327
C         -8.12814       13.90239        8.73301
C         -8.35277       12.68855        8.03915
C         -9.30228       11.68174        8.38539
N        -10.08199       10.87226        8.67309
C         -6.58295       15.86035        8.33895
C         -5.66459       16.42294        7.53674
C         -5.16293       17.72366        7.77948
S         -3.56134       18.23788        7.32660
C         -3.77453       19.85275        7.95481
C         -5.02795       19.93544        8.44166
C         -5.77660       18.78797        8.33371
N         -7.04058       18.95707        8.81383
N         -7.19528       20.22566        9.30407
C         -5.97801       20.81123        9.06632
H          2.43357        1.27795       -1.89995
H          3.13779        1.75985        0.96953
H         -0.35723        3.55217        2.14535
H         -5.18070        3.93430       -1.79023
H         -5.46552        5.65133        0.39772
H         -2.68883        6.97090        0.62194
H         -2.78969        9.30708        1.91429
H         -4.10731       11.42368        3.65593
H         -7.93402        9.57202        3.75713
H         -6.56889        7.88515        0.98126
H         -6.16697        6.94604        2.46740
H         -5.79761       12.77174        4.94283
H         -7.87211       10.74871        6.00986
H         -8.63941       14.24706        9.62276
H         -6.94441       16.35484        9.23174
H         -5.27068       15.88012        6.67795
H         -2.98627       20.58981        7.90255
H         -7.80920       18.29865        8.83203
H         -5.84815       21.84514        9.35526
