76

O          0.37783        1.96105        2.86513
N          1.12432        1.02237        2.54565
O          1.78879        0.34605        3.33474
C          1.20696        0.72755        1.12692
C          0.42753        1.41682        0.13101
C          0.63468        0.94630       -1.14542
C          0.01575        1.35889       -2.37047
S         -0.55155        2.99033       -2.63121
C         -1.09982        2.67312       -4.24880
C         -0.84134        1.38193       -4.50745
N         -1.08040        0.63768       -5.61908
N         -0.63912       -0.64605       -5.42365
C         -0.13021       -0.62221       -4.14877
C         -0.23546        0.66407       -3.50523
S          1.82167       -0.26543       -1.15569
C          2.01142       -0.26041        0.56159
C          2.94002       -1.17088        1.14696
C          3.12848       -2.39753        0.63980
C          4.05755       -3.35376        1.15439
C          3.93735       -4.69098        0.95896
C          5.05135       -5.22994        1.59159
N          5.48121       -6.48307        1.80069
C          6.65788       -6.37434        2.52240
C          7.28726       -7.57192        2.89433
C          8.61563       -7.62626        3.04306
C          9.27506       -8.82379        3.46683
C          8.87481      -10.09424        3.20539
C          9.82283      -10.89030        3.83533
N          9.98607      -12.21707        3.94300
C         11.14189      -12.40885        4.68276
C         11.54344      -13.74232        4.90089
C         12.28972      -14.05453        5.96725
C         12.73009      -15.38234        6.22234
S         12.91812      -15.86192        7.86651
C         13.39553      -17.43740        7.44178
C         13.43825      -17.62327        6.07836
C         13.07828      -16.42029        5.36276
C         13.08268      -16.39008        3.85474
F         11.79830      -16.51086        3.40632
C         13.91315      -17.53220        3.27008
F         13.74194      -17.57815        1.91797
C         13.52713      -18.87261        3.88560
F         12.19710      -19.11157        3.70760
C         13.84904      -18.88998        5.38062
F         15.20036      -19.04008        5.51266
C         11.66520      -11.16444        5.03944
C         10.81343      -10.21470        4.48051
C         10.58152       -8.76457        4.30970
C          6.94248       -5.02682        2.74156
C          5.89360       -4.32228        2.15970
C          5.34483       -2.97069        1.94190
H         -0.27478        2.21180        0.36683
H         -1.55645        3.43025       -4.86951
H         -1.51333        0.91513       -6.49229
H          0.28598       -1.53885       -3.75116
H          3.46636       -0.87220        2.05105
H          2.55657       -2.75151       -0.21599
H          3.15442       -5.22304        0.44189
H          5.04040       -7.34037        1.49497
H          6.66918       -8.44777        3.07258
H          9.24442       -6.75838        2.86045
H          8.01354      -10.42633        2.64802
H          9.38399      -12.93803        3.56613
H         11.21076      -14.49122        4.19040
H         12.53169      -13.28930        6.70093
H         13.63354      -18.15176        8.21826
H         13.46907      -15.43697        3.47672
H         14.97922      -17.34372        3.44350
H         14.06301      -19.67740        3.37321
H         13.36775      -19.74942        5.85845
H         12.56640      -10.99075        5.61044
H         11.39115       -8.28309        3.75336
H         10.41083       -8.25942        5.26494
H          7.78804       -4.63544        3.28675
H          6.01213       -2.35631        1.32929
H          5.11070       -2.47153        2.88594
