79

C         -5.24675       -3.23262       -2.96240
C         -4.75212       -2.48226       -1.88564
C         -4.14238       -1.25394       -2.19419
C         -4.01676       -0.77775       -3.50043
C         -4.53343       -1.55359       -4.56779
C         -5.13888       -2.76085       -4.27645
N         -4.45045       -1.14817       -5.84967
C         -3.84367        0.03676       -6.06559
C         -3.33513        0.79723       -5.03452
N         -3.41324        0.40886       -3.74198
C         -4.89089       -2.95220       -0.47920
S         -6.19114       -3.99238       -0.04642
C         -5.80276       -4.01313        1.63561
C         -4.67109       -3.24188        1.85851
C         -4.12897       -2.68761        0.64698
O         -3.00078       -1.94398        0.55813
C         -4.12118       -2.96787        3.15386
N         -3.65377       -2.69235        4.18064
C         -6.66883       -4.73185        2.57374
S         -8.38086       -4.65378        2.37326
C         -8.73140       -5.65686        3.73003
C         -7.55861       -5.89860        4.42641
C         -6.37794       -5.56178        3.64847
C         -5.07584       -6.11407        4.02409
O         -4.03047       -5.81634        3.45558
C         -5.11942       -7.24166        5.04430
C         -6.07128       -6.96099        6.19917
C         -7.44887       -6.49774        5.75862
O         -8.39407       -6.52686        6.54688
C        -10.09970       -6.11281        3.97335
S        -11.42133       -5.06368        3.64767
C        -12.63341       -6.22911        4.02068
C        -12.03780       -7.41479        4.42927
C        -10.58456       -7.31874        4.46131
C         -9.81648       -8.45685        4.96670
O         -8.68168       -8.74201        4.59715
C        -10.56184       -9.27632        6.00660
C        -11.87024       -9.77823        5.41591
C        -12.71542       -8.67305        4.79193
O        -13.89731       -8.89533        4.53910
C        -14.05187       -5.79739        3.93067
C        -14.99850       -6.20974        4.90345
C        -16.32521       -5.74235        4.91735
C        -16.70240       -4.81610        3.96759
C        -15.77300       -4.41877        2.99733
C        -14.47506       -4.89591        2.93817
C        -16.41719       -3.38772        2.15599
O        -15.91919       -2.80160        1.21886
C        -17.77802       -3.19477        2.70024
C        -17.93138       -4.07463        3.78285
C        -19.11817       -4.07579        4.49106
C        -20.12842       -3.18286        4.09664
C        -19.96254       -2.29996        3.00139
C        -18.75321       -2.30220        2.29597
C        -21.05042       -1.36265        2.68429
C        -21.30199       -0.86760        1.46540
H         -5.72461       -4.19393       -2.81201
H         -3.75205       -0.62021       -1.39934
H         -5.54338       -3.35940       -5.09408
H         -3.77600        0.35724       -7.09795
H         -2.84420        1.74611       -5.21942
H         -2.50715       -1.91657        1.39777
H         -5.43366       -8.14674        4.50917
H         -4.10998       -7.41520        5.43164
H         -5.65478       -6.18199        6.84752
H         -6.19496       -7.87360        6.79374
H        -10.75173       -8.63723        6.87933
H         -9.93977      -10.11229        6.34094
H        -12.46372      -10.26353        6.19877
H        -11.66565      -10.51673        4.63206
H        -14.70785       -6.89911        5.69325
H        -17.01369       -6.08607        5.68259
H        -13.81478       -4.52853        2.15842
H        -19.27322       -4.73490        5.33904
H        -21.06256       -3.17754        4.65750
H        -18.55524       -1.62302        1.47368
H        -21.69373       -1.07216        3.51232
H        -20.71558       -1.13083        0.59112
H        -22.12883       -0.18068        1.31216
