84

C          1.82453       -0.57370       -4.93270
C          1.35964        0.18498       -3.88353
N          1.08304        1.58532       -4.05370
O          2.02115        2.29533       -4.43377
O         -0.07118        1.95448       -3.80877
C          1.19955       -0.57192       -2.66100
C          0.75668        0.03896       -1.36434
C          1.52705       -1.91523       -2.86123
S          2.02382       -2.20108       -4.48967
C          1.47504       -3.00948       -1.90430
S          2.54665       -4.34784       -1.97921
C          1.85549       -5.12636       -0.60349
C          0.86146       -4.32965       -0.06006
C          0.62297       -3.14605       -0.82403
C          0.15114       -4.63195        1.15252
N         -0.41919       -4.87674        2.13158
C          2.39912       -6.39044       -0.22497
C          1.66462       -7.34202        0.37107
C          2.19752       -8.61517        0.75903
N          2.14642       -9.10298        2.06564
C          1.57446       -8.42410        3.21344
C          2.56028       -7.50893        3.92177
C          2.71295      -10.39209        2.16017
O          2.85070      -11.11744        3.12341
C          3.08869      -10.68114        0.76478
C          2.75465       -9.53448       -0.03254
C          3.11596       -9.82777       -1.42880
O          2.98315       -9.10108       -2.39149
N          3.62996      -11.13795       -1.34528
C          4.08815      -11.85360       -2.51922
C          5.53232      -11.52461       -2.85935
C          3.59856      -11.61712       -0.03547
C          4.04281      -12.92471        0.33828
C          3.24707      -13.83544        0.92140
C          3.68704      -15.15177        1.31630
C          2.88230      -16.07849        1.88438
C          3.66945      -17.29281        2.15020
C          5.03166      -16.97162        1.70254
C          5.02096      -15.72085        1.21588
C          6.20242      -17.75528        1.76691
N          7.17488      -18.39214        1.81534
C          3.20911      -18.44310        2.69409
C          4.00458      -19.65198        2.94709
C          3.21180      -20.57129        3.53356
C          1.87850      -20.01099        3.66875
C          1.85409      -18.76221        3.16881
C          0.69112      -17.95729        3.14216
N         -0.26735      -17.30449        3.12199
C          3.70333      -21.83636        3.95550
C          3.80326      -23.05040        3.28458
N          3.35712      -23.20260        1.92509
O          2.16195      -22.97580        1.70069
O          4.20498      -23.56033        1.09917
C          4.39204      -24.10508        4.08084
C          4.62972      -25.52252        3.66308
C          4.70615      -23.63347        5.34095
S          4.30793      -21.99217        5.56123
H          2.04028       -0.25218       -5.94354
H          0.98184        1.10858       -1.32035
H          1.27006       -0.42027       -0.51355
H         -0.32322       -0.08967       -1.23844
H         -0.14213       -2.42272       -0.56918
H          3.44426       -6.58654       -0.46123
H          0.60718       -7.21146        0.58245
H          1.23218       -9.18594        3.92313
H          0.69040       -7.86112        2.89837
H          3.43713       -8.06282        4.27237
H          2.08141       -7.04634        4.79158
H          2.90829       -6.70813        3.26201
H          3.45311      -11.56104       -3.36398
H          3.96084      -12.93215       -2.37855
H          5.65952      -10.45223       -3.04136
H          5.84210      -12.06135       -3.76157
H          6.20402      -11.80767       -2.04294
H          5.08448      -13.13974        0.12054
H          2.20246      -13.59391        1.11892
H          1.83754      -15.91999        2.09608
H          5.87541      -15.19111        0.82308
H          5.04991      -19.80109        2.73363
H          1.04599      -20.54298        4.10579
H          4.53047      -25.67045        2.58543
H          3.91426      -26.18506        4.16228
H          5.63955      -25.83777        3.94870
H          5.15442      -24.18732        6.15624
