124

C         -0.14545        1.23302       -2.43164
C         -1.28251        0.46784       -2.61930
C         -1.38870       -0.89427       -2.39642
C         -0.29477       -1.34921       -1.71172
C          0.89247       -0.64817       -1.52165
C          0.97203        0.65325       -1.91558
C          2.23026        1.28650       -1.50647
C          2.58332        2.60338       -1.66555
C          1.78742        3.59409       -2.36792
N          1.19562        4.42744       -2.91687
C          3.80381        3.15501       -1.16615
N          4.77346        3.65654       -0.78653
C          2.98131        0.17291       -0.86314
C          4.22070        0.16008       -0.39955
C          2.11289       -1.00537       -0.84696
O          2.38239       -2.09413       -0.36602
C         -2.59422       -1.87176       -2.70942
F         -3.23645       -0.76251       -3.18604
F         -2.84577       -1.90473       -1.34912
F         -1.86331       -2.34980       -3.78982
C         -2.47966       -3.36881       -2.42530
C         -1.44088       -4.23662       -1.88081
N         -0.03060       -4.22734       -1.33649
O          0.28105       -5.03501       -0.51313
O          0.86677       -3.57883       -1.79585
C         -1.97695       -5.53403       -1.98758
C         -3.21577       -5.52446       -2.53023
C         -3.68752       -4.20950       -2.80515
C         -4.95642       -3.89278       -3.32092
C         -5.44006       -2.54926       -3.64789
C         -6.70077       -2.58232       -4.09795
C         -7.18034       -3.93995       -4.09309
N         -8.56355       -4.15536       -4.46675
O         -9.09371       -5.20377       -4.50659
O         -9.28431       -3.21629       -4.52470
C         -6.15472       -4.77577       -3.69261
C         -6.20021       -6.26669       -3.58118
C         -7.14721       -7.05870       -4.03710
C         -7.27415       -8.46212       -3.86002
N         -7.49435       -9.11932       -2.61992
C         -7.61926       -8.52800       -1.29152
C         -6.55008       -9.05443       -0.34187
C         -7.62136      -10.42613       -2.89133
O         -7.78990      -11.24844       -2.01823
C         -7.49901      -10.62165       -4.34166
C         -7.30985       -9.33272       -4.85786
C         -7.20468       -9.47168       -6.29363
O         -7.04015       -8.57243       -7.10633
N         -7.30381      -10.79695       -6.59391
C         -7.22371      -11.32872       -7.95536
C         -8.49815      -12.04706       -8.30557
C         -7.50916      -11.51326       -5.33811
C         -7.75161      -12.97285       -5.13234
C         -7.98811      -13.51717       -3.94533
C         -8.32141      -14.88818       -3.73702
C         -8.53660      -15.32464       -2.52615
C         -8.76597      -16.74036       -2.62751
C         -8.66355      -17.07479       -4.05257
C         -8.41877      -15.95861       -4.71483
C         -8.73869      -18.38587       -4.64374
N         -8.80602      -19.45677       -5.07766
C         -8.97568      -17.56244       -1.60905
C         -9.16542      -18.98894       -1.70911
C         -9.27186      -19.45703       -0.49009
C         -9.18976      -18.36337        0.48400
C         -9.01737      -17.23150       -0.18405
C         -8.85665      -15.91818        0.39865
N         -8.72224      -14.84442        0.81270
C         -9.42158      -20.88178       -0.25299
C         -8.99191      -21.51994        0.84937
C         -9.24210      -23.02331        0.99339
C         -9.62577      -24.52630        1.13206
C         -9.28823      -25.31666        2.26015
C         -9.88458      -26.54545        2.43118
C        -10.80530      -27.07375        1.54173
C        -11.06394      -26.38358        0.34994
C        -10.46806      -25.13201        0.13854
C        -11.35342      -28.36145        2.09204
C        -12.27846      -29.18391        1.51425
C        -12.90742      -28.89100        0.25167
N        -13.39773      -28.62796       -0.76445
C        -12.55989      -30.53309        1.99929
N        -12.75273      -31.59825        2.42103
C        -10.60914      -28.55338        3.38522
C        -10.72222      -29.52407        4.28880
C         -9.71435      -27.41124        3.56219
O         -8.98834      -27.18909        4.52204
F         -8.59747      -22.97657        2.21865
F        -10.60974      -22.74355        0.95847
F         -8.48138      -23.29662       -0.14104
H         -0.18770        2.26514       -2.62193
H         -2.14988        0.95184       -2.84793
H         -0.51162       -2.18844       -1.23054
H          4.85077        1.02349       -0.44408
H          4.61599       -0.75953        0.00610
H         -1.40385       -6.40320       -1.74213
H         -3.66448       -6.40394       -2.73410
H         -5.02209       -1.60989       -3.62551
H         -7.23739       -1.69760       -4.42253
H         -5.42888       -6.82929       -3.17960
H         -7.90985       -6.78549       -4.59520
H         -8.62671       -8.76740       -0.87468
H         -7.49016       -7.43145       -1.32341
H         -6.55269      -10.14135       -0.32220
H         -6.72242       -8.66831        0.69267
H         -5.53368       -8.83142       -0.70158
H         -6.38451      -12.04479       -8.05444
H         -7.09292      -10.49600       -8.69419
H         -8.59445      -12.88690       -7.61504
H         -8.52434      -12.50279       -9.31068
H         -9.30439      -11.29308       -8.26238
H         -7.84423      -13.65825       -5.93820
H         -8.02493      -13.01469       -3.04380
H         -8.50647      -14.67366       -1.66687
H         -8.25789      -15.86706       -5.77447
H         -9.20230      -19.60517       -2.58858
H         -9.23631      -18.45737        1.55371
H         -9.94339      -21.45214       -1.01920
H         -8.52014      -20.91967        1.64211
H         -8.63392      -24.97407        3.05174
H        -11.74525      -26.74232       -0.39734
H        -10.74093      -24.59608       -0.76579
H        -11.39811      -30.34179        4.15769
H        -10.13916      -29.48931        5.20218
