84

C         -1.34060       -1.52949        0.50636
C         -1.17512       -2.78055        0.00197
C         -2.45010       -3.60810        0.00309
N         -3.50779       -4.29462        0.00402
C          0.00440       -3.33316       -0.55054
N          0.98286       -3.77085       -0.99501
C         -0.33066       -0.44257        0.39737
C         -0.99527        0.78924        0.47291
C         -0.35803        2.01152        0.33882
C          1.02228        2.00122        0.16053
C          1.73320        0.78476        0.13790
C          1.04936       -0.44286        0.25102
C          3.22926        0.78454       -0.00660
C         -2.41867        0.59485        0.77321
O         -3.24992        1.47717        0.85042
C         -2.61330       -0.88833        0.98674
C         -3.77685       -1.20336        1.60295
C         -4.31173       -2.46613        2.03438
C         -4.83123       -3.54004        2.22418
C         -5.34323       -5.01825        2.08435
C         -5.55019       -6.15456        1.73641
C         -5.67301       -7.48759        1.23611
N         -6.87543       -8.10726        0.88304
C         -8.17440       -7.47381        0.82129
C         -8.92244       -7.55552        2.13743
C         -6.68010       -9.44218        0.46714
O         -7.48753      -10.27308        0.10349
C         -5.21834       -9.59567        0.53420
C         -4.66890       -8.33919        0.99334
C         -3.20226       -8.48393        1.00609
O         -2.37878       -7.64775        1.31787
N         -3.01104       -9.81034        0.54585
C         -1.68601      -10.36153        0.33907
C         -1.12461      -11.02923        1.58214
C         -4.22578      -10.46336        0.31213
C         -4.31501      -11.84215       -0.11770
C         -4.98732      -12.78531        0.56347
C         -5.05357      -14.16133        0.18116
C         -5.18875      -15.34401       -0.00324
C         -5.44858      -16.86825       -0.09036
C         -5.72654      -18.03462       -0.02568
C         -6.14582      -19.38407        0.21182
C         -5.86012      -20.45774       -0.54245
C         -6.25602      -21.89264       -0.39285
C         -6.86670      -22.49012        0.66394
C         -7.25158      -21.79090        1.84349
N         -7.57208      -21.23497        2.81037
C         -7.16668      -23.88470        0.71782
N         -7.41976      -25.01452        0.78177
C         -5.77958      -22.59883       -1.62904
C         -5.07506      -21.68614       -2.42447
C         -5.06079      -20.35243       -1.81254
O         -4.50121      -19.38456       -2.28471
C         -4.48716      -22.01844       -3.63748
C         -4.60832      -23.33104       -4.08579
C         -5.31468      -24.27867       -3.32630
C         -5.90255      -23.90532       -2.09887
C         -5.44622      -25.69815       -3.80795
H         -0.91564        2.94210        0.38909
H          1.54990        2.94831        0.05993
H          1.62669       -1.36268        0.23838
H          3.63147        1.80284       -0.01398
H          3.51682        0.29750       -0.94327
H          3.68625        0.25266        0.83427
H         -4.46995       -0.38382        1.80725
H         -8.76733       -7.98053        0.04909
H         -8.05798       -6.43368        0.49879
H         -9.07838       -8.59737        2.43573
H         -9.90201       -7.07630        2.04402
H         -8.36864       -7.05444        2.93665
H         -1.01835       -9.54106        0.05001
H         -1.70420      -11.06464       -0.50000
H         -1.03706      -10.31508        2.40721
H         -0.12767      -11.43175        1.37427
H         -1.76322      -11.85320        1.91468
H         -3.77729      -12.10748       -1.02469
H         -5.50979      -12.52506        1.48115
H         -6.75678      -19.46653        1.10029
H         -3.95130      -21.27354       -4.21859
H         -4.15343      -23.61399       -5.03353
H         -6.44367      -24.67587       -1.56115
H         -4.96764      -25.83870       -4.78274
H         -6.50273      -25.96571       -3.91222
H         -4.96990      -26.38218       -3.09796
