106

C         -6.64776        0.64526        0.95614
C         -6.75682       -0.16646        2.03652
C         -5.71361       -1.05376        2.44488
N         -4.89098       -1.74219        2.87464
C         -7.86821       -0.13083        2.93764
N         -8.78553       -0.12573        3.65109
C         -7.45042        1.89781        0.76778
C         -6.75339        2.74568       -0.10692
C         -7.14655        4.03809       -0.41452
C         -8.29038        4.52541        0.20681
C         -9.02766        3.70640        1.08145
C         -8.61906        2.38175        1.33684
C        -10.22456        4.24646        1.81173
C         -5.56299        2.07931       -0.63341
O         -4.76972        2.56037       -1.41688
C         -5.58153        0.68823       -0.06026
C         -4.80276       -0.17730       -0.72918
C         -4.68543       -1.63869       -0.73782
C         -3.42849       -2.18430       -1.04173
C         -3.25119       -3.57276       -1.23403
N         -1.86939       -4.02142       -1.53116
O         -1.00247       -3.14333       -1.66487
O         -1.62423       -5.22918       -1.62414
C         -4.35411       -4.44718       -1.12927
C         -5.61282       -3.87020       -0.84852
C         -5.77949       -2.49280       -0.65999
C         -4.30023       -5.90401       -1.35413
C         -5.06212       -6.82194       -0.73393
C         -4.87852       -8.22960       -0.94961
N         -4.73311       -9.16127        0.08086
C         -4.90370       -8.92391        1.49918
C         -6.34213       -9.17228        1.93402
C         -4.51514      -10.46142       -0.42084
O         -4.33356      -11.50624        0.16893
C         -4.59483      -10.26040       -1.87467
C         -4.81204       -8.86387       -2.12351
C         -4.89212       -8.66666       -3.58221
O         -5.08262       -7.62456       -4.17442
N         -4.71916       -9.97736       -4.07830
C         -4.83706      -10.29785       -5.48755
C         -6.25434      -10.68363       -5.89182
C         -4.54171      -10.89657       -3.04291
C         -4.29304      -12.28945       -3.25966
C         -5.04196      -13.28623       -2.75654
C         -4.76791      -14.68495       -2.94152
C         -4.11132      -15.16923       -4.05722
S         -3.87281      -16.85625       -4.00495
C         -4.63266      -16.96236       -2.48245
C         -5.08020      -15.73964       -2.00411
C         -5.71342      -15.60135       -0.69060
O         -6.54143      -14.73738       -0.42194
O         -5.22434      -16.53595        0.19549
C         -5.36852      -16.15481        1.52586
C         -4.31689      -16.13279        2.35110
C         -4.40963      -15.68776        3.72386
C         -3.58523      -16.02284        4.72988
C         -3.67150      -15.68383        6.17042
C         -4.20524      -14.56018        6.71750
C         -4.81241      -13.53484        5.93963
N         -5.32247      -12.68904        5.31809
C         -4.14665      -14.27997        8.10911
N         -4.10710      -14.04305        9.24881
C         -2.89144      -16.73043        6.89920
C         -2.16328      -17.47144        5.95721
C         -2.49446      -17.04987        4.59193
O         -1.97998      -17.49709        3.58772
C         -1.29965      -18.50355        6.28895
C         -1.17976      -18.83643        7.63325
C         -1.93429      -18.15592        8.60848
C         -2.78639      -17.09380        8.23793
C         -1.80238      -18.56729       10.04880
H         -6.56472        4.65095       -1.09693
H         -8.60173        5.55087        0.01640
H         -9.23289        1.79164        2.00747
H        -10.46727        5.26396        1.49136
H        -10.01556        4.27055        2.88688
H        -11.09749        3.61253        1.62946
H         -4.14940        0.25454       -1.49607
H         -2.58008       -1.50760       -1.14789
H         -6.50529       -4.49075       -0.80266
H         -6.78158       -2.10834       -0.50235
H         -3.55923       -6.25207       -2.07124
H         -5.82596       -6.53914       -0.01757
H         -4.58733       -7.90722        1.75288
H         -4.25266       -9.61708        2.04486
H         -7.04517       -8.55848        1.36129
H         -6.46707       -8.94043        2.99589
H         -6.62033      -10.22124        1.78205
H         -4.14367      -11.10804       -5.73347
H         -4.53242       -9.41966       -6.06770
H         -6.59309      -11.57839       -5.35955
H         -6.29307      -10.89705       -6.96539
H         -6.96611       -9.87883       -5.68025
H         -3.40371      -12.50428       -3.84688
H         -5.90826      -13.02804       -2.14666
H         -3.74679      -14.61568       -4.91146
H         -4.71156      -17.92833       -2.00105
H         -6.38562      -15.89802        1.79490
H         -3.34428      -16.43037        1.96298
H         -5.26175      -15.03601        3.89904
H         -0.75136      -19.04131        5.52115
H         -0.51094      -19.64505        7.92415
H         -3.35703      -16.59920        9.01752
H         -1.90749      -19.65381       10.14118
H         -2.57820      -18.10874       10.67008
H         -0.82416      -18.26734       10.43716
