60

C         -1.36271       -1.47532       -0.00826
C         -1.17512       -2.78055        0.00197
C         -2.45010       -3.60810        0.00309
N         -3.50779       -4.29462        0.00402
C         -0.04206       -3.64439        0.01371
N          0.87071       -4.36474        0.02442
C         -0.17545       -0.63165       -0.01303
C         -0.56748        0.68673       -0.01171
C          0.41525        1.67270       -0.01129
C          1.79058        1.30306       -0.01221
C          2.18960       -0.03732       -0.01721
C          1.18200       -0.98575       -0.02255
C          3.59948       -0.54490       -0.01555
C         -2.08894        0.74909       -0.00926
O         -2.74578        1.77012       -0.00851
C         -2.64864       -0.70897       -0.00693
C         -4.01628       -0.95011       -0.00608
C         -4.94114       -2.17215       -0.00418
C         -5.58999       -3.22928       -0.00278
C         -5.92976       -5.02310       -0.00010
C         -5.86015       -6.25234        0.00123
C         -5.64546       -7.99209        0.00301
C         -5.52405       -9.22967        0.00440
C         -5.45931      -10.91411        0.00694
C         -5.49410      -12.14226        0.00854
C         -5.63930      -13.82257        0.01012
C         -5.79576      -15.03271        0.00985
C         -6.03547      -16.69626        0.00971
C         -6.21859      -17.98719        0.01039
C         -6.43207      -19.49213        0.01118
C         -5.59238      -20.32638        0.70842
C         -5.68944      -21.78935        0.77461
C         -6.57280      -22.52538        0.11377
C         -7.59374      -21.81114       -0.75683
N         -8.44070      -21.21862       -1.47906
C         -6.60783      -24.03978        0.23934
N         -6.63690      -25.29610        0.34352
C         -4.66512      -22.39120        1.63349
C         -3.85942      -21.39341        2.13734
C         -4.35586      -20.05467        1.60884
O         -3.84953      -18.98364        1.86830
C         -2.80226      -21.74481        2.98351
C         -2.56364      -23.12125        3.30446
C         -3.37488      -24.12775        2.79044
C         -4.41171      -23.72672        1.96901
C         -3.25922      -25.61402        3.01235
H          0.14272        2.72580       -0.00883
H          2.56153        2.07924       -0.00873
H          1.54350       -2.00839       -0.02861
H          4.35001        0.24555       -0.01163
H          3.77691       -1.18113       -0.89687
H          3.77292       -1.18139        0.87054
H         -4.63049       -0.04515       -0.00621
H         -7.30502      -19.66410       -0.56908
H         -2.15023      -20.98809        3.40182
H         -1.73631      -23.39769        3.96456
H         -4.99061      -24.56275        1.62373
H         -2.44499      -25.89939        3.67615
H         -3.11616      -26.12697        2.04857
H         -4.19951      -26.00363        3.43323
