103

C         -2.92882       -4.39456        2.97848
C         -4.00820       -5.05238        2.37685
F         -5.15472       -5.17040        3.06061
C         -3.90435       -5.61041        1.09643
F         -4.94856       -6.26063        0.56560
C         -2.71774       -5.53321        0.37919
C         -1.65369       -4.89382        0.99575
C         -1.73478       -4.30619        2.27516
C         -0.38876       -3.76719        2.61920
C         -0.10871       -2.77311        3.49516
C         -1.11302       -2.14131        4.27743
N         -1.94804       -1.63845        4.91004
C          1.20717       -2.23588        3.63311
N          2.28465       -1.81976        3.73222
C          0.55352       -4.40557        1.67650
C         -0.27004       -4.82263        0.49175
O          0.08181       -5.00351       -0.65350
C          1.81527       -4.79626        1.92478
C          2.55563       -5.66929        1.08424
S          2.41819       -7.36499        1.28339
C          3.54372       -7.70965        0.01360
C          4.06414       -6.52553       -0.48868
C          3.51031       -5.36673        0.13891
C          5.04653       -6.44157       -1.52997
N          5.85918       -6.39451       -2.35802
C          3.76432       -9.08726       -0.28894
C          4.88902       -9.54364       -0.85950
C          5.13212      -10.93713       -1.06830
N          5.35338      -11.50672       -2.32064
C          5.37611      -10.80416       -3.58968
C          6.75955      -10.28713       -3.95429
C          5.54901      -12.89912       -2.22413
O          5.74990      -13.72413       -3.09121
C          5.44836      -13.13760       -0.77314
C          5.19618      -11.88186       -0.12817
C          5.11060      -12.11813        1.32510
O          4.91689      -11.29456        2.19529
N          5.31834      -13.50782        1.41956
C          5.35758      -14.20887        2.69045
C          3.98725      -14.71568        3.10659
C          5.50266      -14.08244        0.16222
C          5.72888      -15.47931       -0.02952
C          6.83146      -15.95368       -0.62202
C          7.09423      -17.34369       -0.71094
S          8.01064      -17.95292       -2.05158
C          6.79740      -18.38820        0.12549
C          6.11940      -18.57594        1.38813
O          5.53183      -17.73649        2.04978
N          6.25143      -19.92150        1.66556
C          5.66702      -20.55596        2.82553
C          6.58977      -20.50763        4.03183
C          6.92274      -20.62213        0.68501
O          7.09501      -21.82911        0.63776
C          7.29363      -19.63473       -0.30380
C          7.97568      -19.59858       -1.49367
C          8.62362      -20.59872       -2.27100
C          8.21308      -21.87659       -2.23442
C          8.82158      -22.94026       -2.99240
C          8.78799      -24.24249       -2.66923
C          9.11412      -25.23443       -3.73876
O          9.70331      -25.04840       -4.78080
C          8.48798      -26.49493       -3.30474
C          7.88496      -26.34258       -2.03763
C          7.16492      -27.40716       -1.51374
C          7.11969      -28.60379       -2.23987
C          7.76510      -28.73656       -3.47496
C          8.45127      -27.67024       -4.03671
F          7.71808      -29.90268       -4.13185
F          6.44969      -29.64455       -1.72712
C          8.26078      -24.99191       -1.51884
C          8.40011      -24.67874       -0.20784
C          9.23331      -23.59870        0.22761
N          9.96079      -22.77427        0.60655
C          7.86179      -25.48016        0.84649
N          7.41563      -26.13668        1.68393
H         -3.06052       -4.01432        3.98559
H         -2.62207       -5.99347       -0.59784
H          2.30260       -4.55431        2.86447
H          3.79527       -4.35059       -0.10609
H          2.99089       -9.80005        0.00195
H          5.70702       -8.89918       -1.15900
H          4.65484       -9.98059       -3.56518
H          5.04708      -11.49996       -4.37002
H          7.11795       -9.55294       -3.22594
H          6.73211       -9.80286       -4.93626
H          7.49041      -11.10128       -3.99743
H          5.72570      -13.51644        3.45677
H          6.07672      -15.03329        2.63542
H          3.29655      -13.88175        3.26801
H          4.05900      -15.28537        4.03848
H          3.55303      -15.36559        2.34068
H          4.95478      -16.13197        0.36112
H          7.57054      -15.26667       -1.03570
H          5.43935      -21.59928        2.58228
H          4.72813      -20.04674        3.06407
H          7.53985      -21.01227        3.82742
H          6.11551      -21.00283        4.88506
H          6.81272      -19.47453        4.31737
H          9.47324      -20.31027       -2.88988
H          7.34242      -22.15344       -1.65118
H          9.24412      -22.64553       -3.95266
H          6.63868      -27.37008       -0.56713
H          8.93590      -27.75774       -5.00271
