102

C          5.03186        0.45297       -2.91552
O          5.98494       -0.27312       -3.13388
C          4.73570        1.74332       -3.45219
C          3.56181        2.28349       -3.00143
C          3.35463        3.58013       -3.52767
C          4.39974        3.94624       -4.36575
S          5.59996        2.71164       -4.50320
C          2.90371        1.34530       -2.10735
C          1.65402        1.48444       -1.60499
C          0.85506        2.63846       -1.86457
N          0.20651        3.58153       -2.06010
C          1.03357        0.50038       -0.79001
N          0.54215       -0.29526       -0.10384
C          3.87297        0.18668       -1.94490
C          3.87302       -0.85916       -1.08900
C          4.86118       -1.93407       -0.98053
C          5.17982       -2.83602       -1.94905
N          4.51203       -2.95109       -3.22771
O          3.30574       -2.66966       -3.28482
O          5.17981       -3.38702       -4.17582
C          6.20798       -3.75585       -1.53552
C          6.52442       -3.49713       -0.26037
C          5.70809       -2.36715        0.20984
C          5.75806       -1.87943        1.47695
C          4.97957       -0.74091        1.97053
C          5.28964       -0.54499        3.26123
C          6.26735       -1.53027        3.66368
N          6.69729       -1.65521        5.04394
O          7.86761       -1.96624        5.29043
O          5.85788       -1.36649        5.90895
C          6.59243       -2.36343        2.64731
C          7.43235       -3.54333        2.74238
C          8.72618       -3.52204        3.09502
C          9.48910       -4.71207        3.20985
S          9.45783       -5.58076        4.67971
C         10.78510       -6.62150        4.24434
C         11.14840       -6.36500        2.93072
C         10.37516       -5.29648        2.33530
C         10.54866       -4.82267        1.03187
C         11.58860       -5.48095        0.34014
C         11.91132       -5.01702       -1.05678
C         12.37872       -6.51953        0.93940
C         12.18795       -7.01956        2.25239
C         11.29047       -7.55422        5.20728
C         11.26299       -7.26986        6.51861
C         11.76640       -8.10795        7.56218
C         12.75356       -7.70565        8.38687
C         12.93767       -8.72894        9.41228
C         11.95802       -9.78501        9.09884
C         11.28390       -9.40242        8.00066
C         11.70178      -10.99385        9.78504
N         11.50692      -11.99086       10.34929
C         13.80915       -8.65199       10.43820
C         13.92238       -9.63724       11.50316
C         14.86857       -9.23927       12.37591
C         15.38723       -7.95992       11.91609
C         14.79250       -7.61097       10.76137
C         15.14737       -6.46350       10.01617
N         15.45552       -5.52723        9.40344
C         15.22275       -9.95596       13.57629
C         15.12811      -11.28961       13.68652
C         15.52742      -12.02162       14.85939
C         15.04456      -13.20892       15.25098
C         15.92651      -14.02311       16.18771
O         16.82599      -13.60476       16.89505
C         15.47704      -15.35995       15.94597
C         14.39531      -15.44121       15.10430
C         13.95381      -14.10401       14.75923
C         12.72125      -13.76266       14.30772
C         11.76150      -14.75062       13.95136
N         10.97298      -15.56291       13.67238
C         12.26110      -12.41223       14.28184
N         11.86389      -11.32145       14.29487
C         14.03732      -16.77914       14.84142
C         14.87883      -17.65085       15.51938
S         16.07744      -16.82967       16.45747
H          2.52338        4.24815       -3.33560
H          4.52340        4.87706       -4.90503
H          3.06514       -0.99510       -0.37743
H          6.64684       -4.51455       -2.16623
H          7.27245       -4.04323        0.28503
H          4.26226       -0.14967        1.43071
H          4.87648        0.19849        3.92685
H          6.95488       -4.49116        2.49895
H          9.24270       -2.59933        3.35030
H          9.96429       -4.02680        0.58902
H         12.53770       -5.74370       -1.58255
H         12.44381       -4.06154       -1.01566
H         10.99253       -4.89109       -1.63976
H         13.18916       -6.95068        0.34858
H         12.81653       -7.80159        2.65781
H         11.74265       -8.47765        4.85545
H         10.86354       -6.32682        6.88960
H         13.25701       -6.75636        8.30337
H         10.47182       -9.93292        7.52448
H         13.33693      -10.53185       11.61348
H         16.17004       -7.41508       12.42424
H         15.57117       -9.35298       14.41229
H         14.79645      -11.88276       12.83608
H         16.39887      -11.60995       15.37444
H         13.23445      -17.12951       14.20363
H         14.85659      -18.73243       15.51366
