114

C          3.86086       -0.20722        2.42019
O          4.91333       -0.76683        2.17404
C          3.63155        0.99046        3.16493
C          2.31169        1.33500        3.28319
C          2.14112        2.44171        4.14222
C          3.36969        2.90879        4.59030
S          4.69615        1.98891        3.97453
C          1.49493        0.40698        2.52613
C          0.17984        0.54943        2.23764
C         -0.58142        1.64529        2.73111
N         -1.21316        2.52984        3.14485
C         -0.54308       -0.36364        1.41867
N         -1.13359       -1.12284        0.76819
C          2.44109       -0.67495        2.07628
C          2.16395       -1.91355        1.63511
C          3.10645       -2.96086        1.37061
N          3.14964       -4.17189        2.07010
C          2.42301       -4.53976        3.27093
C          0.91825       -4.66348        3.11024
C          4.21224       -4.98469        1.60942
O          4.55898       -6.08466        1.98994
C          4.82947       -4.15815        0.55739
C          4.06705       -2.95192        0.44364
C          4.65876       -2.13070       -0.62292
O          4.24053       -1.06880       -1.04066
N          5.75495       -2.91466       -1.04551
C          6.59520       -2.49296       -2.14942
C          7.76057       -1.60205       -1.74726
C          5.84935       -4.09973       -0.30082
C          6.86962       -5.08943       -0.48490
C          7.40465       -5.82427        0.50204
N          8.41440       -6.75567        0.41633
C          8.85681       -7.59360        1.51441
N          9.99323       -8.42730        1.13510
C          9.99307       -8.37136       -0.34327
C         11.44239       -8.33303       -0.83512
C         11.53514       -7.83926       -2.28391
C         10.84141       -6.46075       -2.49420
C         10.05840       -5.99054       -1.27035
C          9.16744       -7.12751       -0.77706
N         11.92865       -5.53328       -2.82696
C         13.05681       -6.35417       -3.22142
N         12.95357       -7.72237       -2.70894
C         11.70962       -4.24169       -3.27627
C         12.60073       -3.32262       -3.67712
C         12.30534       -1.94906       -4.21028
C         13.25061       -0.94421       -3.97218
C         13.12244        0.32151       -4.60456
N         14.09596        1.24694       -4.39826
C         15.07175        0.98913       -3.49944
C         15.15056       -0.21100       -2.85207
N         14.27164       -1.19231       -3.11081
C         11.98285        0.60248       -5.39882
C         10.97276       -0.38987       -5.53951
C         11.16000       -1.67705       -4.96933
N         10.21752       -2.64146       -5.12243
C          9.07823       -2.35131       -5.76281
C          8.87755       -1.11324       -6.29836
N          9.80684       -0.13863       -6.19656
C         11.80806        1.96770       -6.06256
S         11.29010        2.02428       -7.72986
C         11.15991        3.75285       -7.81023
C         11.60019        4.28570       -6.61454
C         11.99843        3.27987       -5.63454
C         12.48731        3.64570       -4.36853
C         12.53914        5.04278       -4.12900
C         13.03903        5.46047       -2.85085
N         13.46510        5.77720       -1.81015
C         12.12330        6.01734       -5.08140
C         12.11060        7.41702       -4.74562
N         12.05776        8.54912       -4.49597
C         11.67439        5.67049       -6.37188
C         10.70190        4.33075       -9.04105
C         10.08747        5.51876       -9.13415
H          1.20776        2.89109        4.45874
H          3.56155        3.73657        5.25993
H          1.14574       -2.23842        1.46504
H          2.67094       -3.81732        4.05639
H          2.79740       -5.51099        3.61816
H          0.44778       -3.70035        2.90601
H          0.47718       -5.04313        4.03827
H          0.65913       -5.35241        2.30083
H          5.96328       -1.92362       -2.84205
H          6.95508       -3.36575       -2.70162
H          7.42171       -0.71543       -1.20151
H          8.29048       -1.25874       -2.64360
H          8.47652       -2.13884       -1.11823
H          7.22381       -5.23207       -1.49695
H          7.05235       -5.71540        1.52846
H          8.02685       -8.23774        1.83202
H          9.13919       -6.97941        2.37723
H          9.82745       -9.37897        1.45208
H          9.48919       -9.26754       -0.72866
H         11.89105       -9.32963       -0.73964
H         12.03517       -7.66736       -0.19087
H         11.04617       -8.57691       -2.93343
H         10.16887       -6.54140       -3.36047
H          9.46477       -5.11033       -1.53893
H         10.73352       -5.65151       -0.47351
H          8.46556       -7.42651       -1.56692
H         13.99655       -5.90729       -2.87786
H         13.10603       -6.40843       -4.31637
H         13.53969       -7.75205       -1.87597
H         10.64950       -4.00399       -3.27679
H         13.65919       -3.56463       -3.61023
H         15.77141        1.79294       -3.30167
H         15.91067       -0.42390       -2.10962
H          8.33847       -3.14128       -5.80510
H          7.96254       -0.86092       -6.81960
H         12.81678        2.95676       -3.60418
H         11.40721        6.44655       -7.07446
H         10.85265        3.76624       -9.95965
H          9.82569        6.13616       -8.28425
H          9.79997        5.92137      -10.10090
