102

C         -0.00728        0.91634        2.86965
C          0.36665        2.22404        2.50130
C          1.50058        2.45458        1.71148
C          2.24283        1.35347        1.32074
C          1.85504        0.06187        1.66797
C          0.73295       -0.18573        2.43756
C          2.84520       -0.91544        1.20966
O          2.72999       -2.11893        1.28154
C          3.97773       -0.10549        0.68704
C          3.54779        1.32106        0.63907
O          4.16489        2.27124        0.21064
C          5.23701       -0.48852        0.42996
C          5.68204       -1.82136        0.65757
S          5.57242       -2.95953       -0.60993
C          6.13003       -4.26360        0.36499
C          6.33275       -3.83410        1.66991
C          6.30845       -2.38385        1.76430
C          6.82132       -1.65154        2.99655
N          7.95000       -0.65758        2.68820
O          8.32928        0.05046        3.63226
O          8.43888       -0.64077        1.55083
C          7.41461       -2.61516        4.05204
C          6.60933       -3.90190        4.18535
C          6.65687       -4.70176        2.87069
N          5.70280       -5.86810        3.06085
O          6.23347       -6.98119        3.15890
O          4.49844       -5.61803        3.21168
C          6.33812       -5.56449       -0.18629
C          5.58754       -6.04361       -1.18756
C          5.75428       -7.34004       -1.76708
N          6.02348       -7.55422       -3.11968
C          6.25510       -6.53416       -4.12656
C          7.61861       -6.67583       -4.78933
C          6.08452       -8.93101       -3.42206
O          6.28095       -9.50190       -4.47049
C          5.86810       -9.55150       -2.10887
C          5.65796       -8.51795       -1.14540
C          5.43731       -9.16430        0.15027
O          5.21602       -8.60438        1.21101
N          5.57320      -10.53330       -0.13571
C          5.63096      -11.54627        0.90126
C          4.35876      -11.60723        1.73147
C          5.82833      -10.72326       -1.49137
C          6.09488      -11.97504       -2.11543
C          5.23098      -12.99470       -2.18641
C          5.52511      -14.25344       -2.87939
C          6.71123      -14.55879       -3.57393
F          7.70594      -13.65982       -3.63870
C          6.96066      -15.77696       -4.22405
F          8.15372      -15.88759       -4.82868
C          6.05270      -16.84804       -4.26300
C          4.82026      -16.61413       -3.58034
C          4.55131      -15.29324       -2.87483
N          3.34635      -15.26250       -2.28382
S          2.61373      -16.71800       -2.57745
N          3.78883      -17.47152       -3.46530
C          6.26496      -18.14098       -4.92328
C          7.37721      -18.52524       -5.56928
C          7.47485      -19.83123       -6.17695
C          8.29014      -20.17391       -7.18051
C          8.29070      -21.55527       -7.73107
O          7.63012      -22.50573       -7.36816
C          9.26767      -21.53600       -8.82479
C          9.64138      -22.57738       -9.65413
C         10.60856      -22.30942      -10.62828
C         11.17502      -21.02480      -10.75291
C         10.78205      -19.98363       -9.90806
C          9.82481      -20.26579       -8.95125
C          9.25296      -19.34967       -7.95815
O          9.52635      -18.17435       -7.84344
H         -0.87241        0.76363        3.51326
H         -0.22521        3.06619        2.85780
H          1.80516        3.46381        1.45021
H          0.46695       -1.19812        2.72742
H          5.97159        0.23753        0.08789
H          6.01203       -1.05305        3.43175
H          7.46060       -2.11353        5.02673
H          8.44873       -2.88470        3.79474
H          5.57880       -3.64502        4.46680
H          7.01225       -4.50999        5.00554
H          7.65629       -5.13632        2.73777
H          7.13657       -6.17593        0.23433
H          4.77496       -5.45909       -1.61306
H          6.18041       -5.53806       -3.68075
H          5.46601       -6.62484       -4.88127
H          8.42200       -6.61975       -4.04757
H          7.76789       -5.88281       -5.52706
H          7.71835       -7.63221       -5.31223
H          6.48082      -11.30732        1.55241
H          5.82338      -12.53194        0.46958
H          4.17862      -10.66531        2.25705
H          4.43549      -12.39649        2.48394
H          3.48985      -11.81065        1.09832
H          7.06721      -11.99726       -2.59685
H          4.24827      -12.89987       -1.72586
H          5.41505      -18.82128       -4.89281
H          8.24704      -17.87898       -5.65889
H          6.81120      -20.59321       -5.76792
H          9.20054      -23.56434       -9.55042
H         10.93087      -23.10295      -11.30038
H         11.92842      -20.84119      -11.51713
H         11.21001      -18.98948       -9.99375
