78

C          1.35059        2.03284       -2.61004
C          0.60020        2.90586       -1.92397
C         -0.67293        2.40600       -1.44846
S         -0.88320        0.76675       -1.99336
C          0.69507        0.72228       -2.74813
O          1.18532       -0.24585       -3.30093
C         -1.52658        3.15083       -0.72579
C         -2.78859        2.71917       -0.21758
S         -4.05586        3.86910       -0.02736
C         -5.18084        2.69654        0.55858
C         -4.58037        1.45187        0.61244
C         -3.21533        1.47956        0.21374
C         -5.22307        0.24058        1.01888
N         -5.73282       -0.74210        1.37981
C         -6.50013        3.13612        0.88159
C         -7.23321        2.51420        1.81597
C         -8.55390        2.90182        2.19183
N         -8.87808        3.26541        3.49483
C         -7.95871        3.38278        4.60955
C         -7.35587        4.77506        4.71607
C        -10.22845        3.63407        3.60380
O        -10.83406        4.03879        4.57475
C        -10.73538        3.43145        2.22833
C         -9.64329        2.96594        1.42392
C        -10.13426        2.77657        0.05170
O         -9.49786        2.39600       -0.90961
N        -11.47924        3.20544        0.13676
C        -12.27262        3.35136       -1.07012
C        -12.99013        2.08398       -1.50897
C        -11.81509        3.56190        1.45099
C        -13.08938        4.07822        1.86852
C        -13.56919        3.92034        3.11375
C        -14.81107        4.44940        3.60088
C        -15.22961        4.30007        4.87755
C        -16.54390        4.92642        5.01059
C        -16.83983        5.50102        3.68840
C        -15.81426        5.20509        2.87557
C        -17.93072        6.29471        3.27422
N        -18.82374        6.95946        2.94505
C        -17.29755        4.94748        6.12830
C        -18.63345        5.51482        6.20229
C        -19.06905        5.48282        7.47633
C        -18.06822        4.76374        8.25465
C        -17.01478        4.45039        7.47823
C        -15.86725        3.77638        7.95008
N        -14.92870        3.22564        8.35220
C        -20.35543        5.97283        7.91743
C        -21.01780        7.03435        7.42786
S        -22.58763        7.50047        8.02038
C        -22.69890        8.82782        6.87345
O        -23.64330        9.59750        6.77974
C        -21.48516        8.89559        6.05321
C        -20.60543        7.94659        6.38838
H          2.32396        2.21096       -3.03449
H          0.92320        3.91978       -1.72737
H         -1.25427        4.18324       -0.51436
H         -2.58812        0.59591        0.22922
H         -6.89659        4.01367        0.37062
H         -6.85254        1.67481        2.38841
H         -7.16768        2.63179        4.51978
H         -8.50944        3.16204        5.53097
H         -6.74171        5.00690        3.84003
H         -6.72053        4.84389        5.60466
H         -8.13329        5.54255        4.79191
H        -11.58417        3.63368       -1.87733
H        -12.98012        4.17861       -0.96497
H        -12.29726        1.24293       -1.61507
H        -13.46719        2.24478       -2.48356
H        -13.76883        1.79995       -0.79582
H        -13.65036        4.64471        1.13391
H        -13.00296        3.36214        3.85798
H        -14.67929        3.78243        5.64704
H        -15.71374        5.50111        1.84242
H        -19.20119        5.88896        5.37117
H        -18.17987        4.53247        9.30531
H        -20.79655        5.40787        8.73933
H        -21.34717        9.64557        5.29092
H        -19.64757        7.89764        5.89218
