108

C          4.31645        4.83769       -0.05037
C          3.70478        6.04194        0.24355
C          2.81121        6.86814       -0.56711
O          1.94979        7.59233       -0.05393
C          2.97022        6.81877       -2.09247
F          3.97900        6.02096       -2.54380
F          1.83949        6.37025       -2.71029
F          3.22059        8.05378       -2.61638
S          4.09636        6.55223        1.83830
C          5.10688        5.19904        2.10525
C          5.13657        4.35705        1.01664
C          5.92444        3.16523        1.00212
C          5.61043        2.04952        0.32504
C          6.44488        0.86994        0.28418
C          7.04884        0.37541       -0.82763
N          6.96099        0.94136       -2.16297
O          7.58389        0.34726       -3.05483
O          6.28999        1.96417       -2.34897
C          7.84534       -0.79254       -0.53101
C          7.76461       -1.04280        0.78259
C          6.92053       -0.01572        1.40339
C          6.64534        0.05901        2.72790
C          5.61578        0.91140        3.32705
C          5.58992        0.67840        4.64639
C          6.60293       -0.30545        4.96090
N          6.86182       -0.73475        6.32439
O          6.17975       -0.20142        7.21206
O          7.69475       -1.62016        6.53055
C          7.27596       -0.70715        3.85561
C          8.42859       -1.59050        3.84576
C          9.64192       -1.23248        3.39050
C         10.80820       -2.06209        3.50423
N         11.56982       -2.52077        2.42560
C         11.38543       -2.20804        1.02492
C         11.12635       -3.44657        0.18027
C         12.67934       -3.28276        2.86115
O         13.56035       -3.81965        2.22235
C         12.54411       -3.24179        4.32143
C         11.37871       -2.46801        4.64263
C         11.29124       -2.38238        6.10954
O         10.49558       -1.75080        6.76942
N         12.39027       -3.15205        6.53117
C         12.67441       -3.37716        7.93086
C         11.99070       -4.63739        8.43207
C         13.12002       -3.64075        5.45352
C         14.30738       -4.42293        5.60097
C         15.48733       -4.06123        5.07805
C         16.67167       -4.86250        5.18945
C         16.76561       -6.13003        4.73567
C         18.13970       -6.59263        4.93706
C         18.83368       -5.48662        5.61863
C         17.96115       -4.47157        5.73453
C         20.15692       -5.42540        6.11555
N         21.24561       -5.36877        6.51644
C         18.63977       -7.76845        4.50389
C         20.03961       -8.16327        4.61869
C         20.22477       -9.34373        3.99748
C         18.93327       -9.75366        3.44667
C         17.97318       -8.87637        3.79517
C         16.57865       -9.05740        3.52208
N         15.44785       -9.22771        3.32957
C         21.51248       -9.99660        3.88529
C         22.45777       -9.96793        4.84439
C         23.77157      -10.53160        4.70422
C         24.10281      -11.85123        5.02104
C         23.25940      -12.92243        5.57539
O         22.18841      -12.65724        6.14001
C         23.69208      -14.40151        5.45409
F         24.84708      -14.65328        4.77755
F         23.85226      -14.98506        6.67853
F         22.74411      -15.14643        4.80995
S         25.77638      -12.12172        4.75213
C         26.04017      -10.55100        4.18171
C         24.90063       -9.77973        4.20964
C         24.90400       -8.39998        3.80937
C         25.73902       -7.85833        2.90947
H          4.19513        4.32057       -0.99587
H          5.61748        5.08378        3.05345
H          6.83041        3.17387        1.60727
H          4.70845        2.00803       -0.28457
H          8.37646       -1.37950       -1.26589
H          8.20285       -1.90220        1.26000
H          4.92894        1.57257        2.82857
H          4.92614        1.13262        5.36756
H          8.28561       -2.56800        4.30914
H          9.79655       -0.25726        2.93619
H         12.29847       -1.71493        0.67132
H         10.56766       -1.49636        0.89873
H         11.91723       -4.19301        0.30311
H         11.08289       -3.18248       -0.88070
H         10.17971       -3.91810        0.46082
H         12.30713       -2.51784        8.50372
H         13.75729       -3.43049        8.08424
H         10.90433       -4.56479        8.31346
H         12.21280       -4.79743        9.49064
H         12.32567       -5.51696        7.87290
H         14.21323       -5.33932        6.17872
H         15.59309       -3.13227        4.52106
H         15.95917       -6.65808        4.25443
H         18.15764       -3.50715        6.18593
H         20.82511       -7.61403        5.10735
H         18.78439      -10.68335        2.91342
H         21.70922      -10.51904        2.95224
H         22.26250       -9.44654        5.78186
H         27.03546      -10.26091        3.87475
H         24.17301       -7.74046        4.27567
H         26.48147       -8.44559        2.37772
H         25.69171       -6.80052        2.67279
