98

C         -0.00957       -1.43836       -3.31467
O          0.26007       -0.28605       -3.05417
C         -0.99654       -1.91496       -4.30073
C         -1.00145       -3.32149       -4.35179
C         -1.97308       -3.96012       -5.10675
C         -2.89868       -3.18187       -5.82733
C         -2.84778       -1.77224       -5.78563
C         -1.88708       -1.12500       -5.00645
Br        -4.07014       -0.66680       -6.72951
Br        -4.21276       -4.12942       -6.82335
C          0.10398       -3.81375       -3.48858
C          0.79680       -4.96511       -3.64849
C          0.40555       -5.96894       -4.58093
N          0.07505       -6.77592       -5.34745
C          2.04988       -5.19454       -2.99905
N          3.08642       -5.35998       -2.50836
C          0.48625       -2.67583       -2.63925
C          0.86879       -2.55564       -1.36034
C          0.89932       -3.65110       -0.46073
O          1.76163       -3.68111        0.61805
C          1.49251       -4.85084        1.25017
C          0.45960       -5.47754        0.57518
N          0.10628       -4.71965       -0.51010
C         -0.02658       -6.69872        1.05656
C          0.56772       -7.26408        2.19009
C          1.60561       -6.59217        2.80727
C          2.10235       -5.37621        2.37428
O          2.01130       -7.33130        3.86545
C          1.19116       -8.45051        3.87176
N          0.32389       -8.43247        2.86137
C          1.31189       -9.45433        4.86574
N          0.98663      -10.80843        4.73899
C          0.48412      -11.47324        3.55081
C          1.59006      -11.98752        2.64164
C          1.23878      -11.50694        5.93686
O          1.09566      -12.68303        6.19919
C          1.72810      -10.44848        6.83933
C          1.75184       -9.21456        6.10289
C          2.23680       -8.15695        7.00673
O          2.38213       -6.97975        6.75183
N          2.46892       -8.85662        8.21148
C          2.99573       -8.18957        9.39030
C          4.33679       -8.73487        9.86047
C          2.14480      -10.20999        8.08331
C          2.28471      -11.18005        9.12548
C          1.66140      -11.11423       10.31154
C          1.89555      -12.10161       11.30274
O          1.25154      -12.05482       12.52827
C          1.67482      -13.16278       13.18669
C          2.56494      -13.83291       12.36633
N          2.71437      -13.14252       11.19946
C          3.11536      -15.03976       12.80255
C          2.72006      -15.54649       14.04141
C          1.85460      -14.81381       14.83224
C          1.30196      -13.60756       14.44293
O          1.66123      -15.49884       15.98846
C          2.41730      -16.65111       15.85025
N          3.01601      -16.72159       14.66725
C          2.44987      -17.64346       16.85992
C          3.22458      -18.73607       16.82290
C          2.77190      -19.86298       17.69639
O          2.02401      -19.81669       18.65015
C          3.34459      -21.07878       17.10212
C          4.17277      -20.75785       16.01341
C          4.26693      -19.26661       15.92410
C          5.28233      -18.57940       15.33902
C          5.53990      -17.20155       15.60262
N          5.79688      -16.08983       15.83402
C          6.25144      -19.19364       14.49609
N          7.03835      -19.69270       13.80630
C          4.74563      -21.80176       15.29866
C          4.51650      -23.13103       15.70799
C          3.69273      -23.41535       16.81454
C          3.08536      -22.37549       17.51735
Br         3.34707      -25.18051       17.42269
Br         5.38710      -24.49341       14.70536
H         -2.05393       -5.04320       -5.13506
H         -1.84508       -0.04302       -4.92164
H          1.04376       -1.57592       -0.92402
H         -0.84731       -7.20339        0.55930
H          2.91709       -4.87339        2.87959
H         -0.18912      -10.81086        3.00165
H         -0.11896      -12.32935        3.87504
H          2.21862      -11.17150        2.27212
H          1.15587      -12.50039        1.77647
H          2.23533      -12.70025        3.16596
H          2.24848       -8.24812       10.18884
H          3.12273       -7.12487        9.16173
H          4.25918       -9.76164       10.22677
H          4.72234       -8.12912       10.68635
H          5.07116       -8.72672        9.04942
H          2.95508      -12.01122        8.90356
H          0.96896      -10.31649       10.55542
H          3.81541      -15.58311       12.17839
H          0.60548      -13.06232       15.06619
H          1.69849      -17.53285       17.63956
H          5.37214      -21.63046       14.42921
H          2.42854      -22.55843       18.36352
