90

C         -2.21053       -0.05502        4.17834
O         -2.36511       -1.24750        4.31774
C         -2.97455        0.99779        4.86413
C         -2.38357        2.25246        4.64269
C         -3.04904        3.38345        5.09665
C         -4.28125        3.23488        5.76800
C         -4.84202        1.95864        5.98180
C         -4.17722        0.81872        5.52966
Br        -6.52367        1.69309        6.82473
Br        -5.14657        4.83416        6.32852
C         -1.14480        2.04338        3.83696
C         -0.07476        2.86518        3.74846
C         -0.03862        4.13012        4.39184
N         -0.03247        5.16354        4.91286
C          1.11837        2.49874        3.05744
N          2.07530        2.19968        2.47448
C         -1.23865        0.67528        3.29884
C         -0.79541        0.22064        2.11591
C         -1.19090       -1.02744        1.57405
S         -2.68234       -1.13455        0.70966
C         -2.36251       -2.81602        0.48518
N         -1.17261       -3.17532        0.92840
N         -0.50015       -2.14662        1.55953
C         -3.36004       -3.62722       -0.11586
C         -3.05233       -4.79256       -0.70184
C         -4.05700       -5.68487       -1.24716
C         -5.06057       -5.39128       -2.30744
C         -5.21825       -4.13024       -2.99880
C         -5.81293       -6.50405       -2.54819
C         -5.27108       -7.53980       -1.65807
C         -4.19886       -6.97085       -0.85471
C         -3.48055       -7.70824        0.15122
C         -3.72757       -9.00654        0.37777
S         -4.88885       -9.98055       -0.46779
C         -5.60782       -8.83431       -1.56087
C         -6.80478       -6.61398       -3.60729
C         -7.88196       -7.41443       -3.59595
C         -8.81943       -7.46535       -4.71841
C         -9.93453       -6.62133       -4.79563
C        -10.32124       -5.62012       -3.78908
O         -9.67086       -5.31705       -2.80784
S        -11.85155       -4.88309       -4.17830
C        -11.94157       -5.73242       -5.69862
O        -12.81292       -5.52469       -6.52007
C        -10.83154       -6.67725       -5.87447
C        -10.63934       -7.55923       -6.95249
C         -9.53226       -8.40913       -6.84454
C         -8.66869       -8.37203       -5.76786
C         -7.70013       -9.44311       -5.94163
O         -6.84639       -9.79489       -5.15623
O         -7.97954      -10.01118       -7.14080
C         -9.07623       -9.47261       -7.72991
O         -9.57546       -9.82337       -8.77767
C        -11.53164       -7.64013       -8.11784
C        -12.55175       -8.51264       -8.16679
C        -13.34290       -8.76336       -9.35264
C        -14.17798       -7.92464       -9.97925
C        -14.63332       -8.26182      -11.36296
O        -14.66603       -9.35721      -11.89336
C        -14.97301       -6.97728      -11.98328
C        -14.82899       -5.92844      -11.05544
C        -14.56608       -6.53621       -9.72228
C        -14.92853       -6.00681       -8.52842
C        -15.11006       -6.82974       -7.37331
N        -15.29253       -7.50800       -6.44740
C        -15.24500       -4.62844       -8.36099
N        -15.47370       -3.49552       -8.25215
C        -14.99915       -4.62508      -11.49407
C        -15.39207       -4.39931      -12.82665
C        -15.58293       -5.47474      -13.71973
C        -15.34751       -6.78480      -13.30178
Br       -16.17246       -5.23950      -15.50920
Br       -15.67446       -2.58744      -13.33024
H         -2.66793        4.38458        4.91654
H         -4.59558       -0.17752        5.64835
H         -0.19679        0.83302        1.45191
H         -4.39457       -3.30226       -0.05663
H         -2.01910       -5.13501       -0.75793
H         -4.50556       -3.32783       -2.85890
H         -6.07429       -3.94436       -3.63498
H         -2.72979       -7.19690        0.74587
H         -3.16196       -9.51801        1.15168
H         -6.37032       -9.25242       -2.20480
H         -6.63212       -5.96788       -4.46507
H         -8.13071       -8.03308       -2.73904
H        -11.25905       -7.03496       -8.98201
H        -12.77863       -9.16369       -7.32493
H        -13.17300       -9.75165       -9.78843
H        -14.84587       -3.77551      -10.83587
H        -15.45662       -7.63504      -13.96968
