97

C          2.02283       -1.10588       -3.86186
O          0.83965       -1.32048       -3.72118
C          2.69482       -0.86005       -5.14381
C          4.02117       -0.45491       -4.93254
C          4.84046       -0.28527       -6.04092
C          4.31275       -0.50199       -7.33046
C          2.97232       -0.89984       -7.50715
C          2.14644       -1.08067       -6.39797
Br         2.21358       -1.25395       -9.21178
Br         5.50339       -0.24633       -8.79217
C          4.25187       -0.35774       -3.45999
C          5.22437        0.35174       -2.83898
C          6.22967        1.06561       -3.55421
N          7.04486        1.63857       -4.14394
C          5.27857        0.49046       -1.42163
N          5.31916        0.58063       -0.26607
C          3.10250       -1.03410       -2.81859
C          3.03724       -1.67237       -1.63716
C          1.91740       -2.45195       -1.24437
S          1.76213       -4.06238       -1.84210
C          0.24963       -4.16535       -1.00358
N          0.01204       -3.11005       -0.25104
N          0.97966       -2.12823       -0.37844
C         -0.54605       -5.31528       -1.21668
C         -1.75020       -5.48470       -0.63852
C         -2.59296       -6.58624       -1.00073
N         -3.10184       -7.52832       -0.11234
C         -2.92013       -7.56118        1.32512
C         -2.17437       -8.79831        1.80990
C         -3.95447       -8.44831       -0.76627
O         -4.62855       -9.33494       -0.28447
C         -3.90325       -8.00777       -2.17855
C         -3.04230       -6.86026       -2.23149
C         -2.98273       -6.39297       -3.62286
O         -2.34308       -5.45818       -4.05895
N         -3.82687       -7.30415       -4.29035
C         -4.08427       -7.17257       -5.71027
C         -3.05201       -7.89236       -6.56419
C         -4.35948       -8.25516       -3.41193
C         -5.20253       -9.35095       -3.82250
C         -6.17007       -9.87756       -3.05226
C         -6.92212      -11.08547       -3.40953
C         -6.47545      -12.35264       -3.01143
C         -5.27777      -12.74527       -2.25731
O         -4.38614      -12.03377       -1.84434
O         -5.31524      -14.10814       -2.12314
C         -6.45479      -14.68734       -2.77648
C         -7.17114      -13.51321       -3.30663
C         -8.35654      -13.46786       -4.01161
C         -8.83218      -12.21931       -4.42025
C         -8.13498      -11.02276       -4.13133
C         -8.71887       -9.75277       -4.61648
C         -8.49542       -9.33241       -5.87062
C         -8.95329       -8.12068       -6.51792
C        -10.09858       -7.41954       -6.46919
C        -10.12383       -6.11714       -7.22880
O         -9.39011       -5.75592       -8.12488
C        -11.20771       -5.32308       -6.62923
C        -11.85867       -6.06957       -5.63632
C        -11.35414       -7.47614       -5.71341
C        -12.11405       -8.56674       -5.44381
C        -11.75827       -9.86854       -5.88764
N        -11.53744      -10.94260       -6.27133
C        -13.40370       -8.47311       -4.84035
N        -14.44939       -8.38850       -4.35005
C        -12.78480       -5.42720       -4.82634
C        -13.10265       -4.07834       -5.08048
C        -12.49484       -3.38027       -6.14365
C        -11.51925       -4.00467       -6.92284
Br       -12.92256       -1.58119       -6.57776
Br       -14.36605       -3.26589       -3.91333
H          5.88759       -0.01448       -5.94580
H          1.11565       -1.41264       -6.49425
H          3.86977       -1.69857       -0.94443
H         -0.18720       -6.05884       -1.92669
H         -2.14766       -4.75762        0.05853
H         -3.91912       -7.55438        1.77580
H         -2.39678       -6.66316        1.66558
H         -2.64576       -9.72364        1.46356
H         -2.16242       -8.82205        2.90483
H         -1.13842       -8.79926        1.45698
H         -4.04735       -6.10484       -5.96186
H         -5.09544       -7.52078       -5.93865
H         -2.04871       -7.48341       -6.40148
H         -3.29396       -7.77475       -7.62587
H         -3.01983       -8.96145       -6.33551
H         -4.97851       -9.79477       -4.78854
H         -6.40353       -9.47842       -2.06801
H         -7.04513      -15.24357       -2.04195
H         -6.10487      -15.35223       -3.57222
H         -8.91121      -14.37221       -4.24684
H         -9.76601      -12.18989       -4.97611
H         -9.34264       -9.21516       -3.91126
H         -7.80895       -9.91271       -6.49203
H         -8.18084       -7.73614       -7.19162
H        -13.26190       -5.93380       -3.99202
H        -11.00314       -3.48339       -7.72452
