82

C          2.73614       -2.01194       -1.84351
O          2.46774       -3.16729       -1.59827
C          3.77264       -1.20467       -1.18351
C          3.97929       -0.00578       -1.88565
C          4.81715        0.95118       -1.33029
C          5.44932        0.67920       -0.10041
C          5.24139       -0.54627        0.56647
C          4.39299       -1.50781        0.01722
Br         6.03299       -0.95823        2.24318
Br         6.55253        2.05549        0.61137
C          3.12131       -0.02627       -3.10444
C          3.30793        0.68458       -4.24190
C          4.36458        1.62785       -4.38925
N          5.23176        2.39105       -4.49671
C          2.50312        0.47627       -5.40077
N          1.82952        0.28959       -6.32657
C          2.14272       -1.11316       -2.88795
C          0.86613       -1.18440       -3.29683
C         -0.06801       -2.11342       -2.76902
S         -0.30748       -3.65221       -3.49910
C         -1.60010       -3.92090       -2.37585
N         -1.77103       -2.91124       -1.54363
N         -0.89891       -1.87068       -1.77556
C         -2.36119       -5.11901       -2.46614
C         -3.39000       -5.35505       -1.63550
C         -4.21257       -6.51942       -1.75443
S         -4.87575       -7.17945       -0.31527
C         -5.62288       -8.50546       -1.11898
C         -5.29438       -8.48729       -2.47157
C         -4.66488       -7.23177       -2.86346
C         -4.48567       -6.86775       -4.32898
S         -5.08306       -5.17857       -4.69547
C         -5.25029       -7.81735       -5.26609
C         -4.99849       -9.26692       -4.87019
C         -5.58765       -9.56949       -3.48739
O         -5.06406      -10.82725       -3.06834
C         -6.41210       -9.38732       -0.30987
C         -7.46248      -10.06800       -0.79751
C         -8.37296      -10.91006       -0.01420
C         -9.68151      -11.10081       -0.42345
N        -10.57263      -11.89157        0.21007
C        -10.10948      -12.55724        1.27604
N         -8.86834      -12.45300        1.78425
C         -8.02871      -11.62510        1.11687
C        -11.05515      -13.44434        1.93748
C        -10.81944      -14.57317        2.61890
C        -11.94750      -15.09387        3.45451
O        -13.12438      -14.80714        3.39279
C        -11.32950      -15.99080        4.44053
C         -9.94724      -16.09770        4.21518
C         -9.63041      -15.37719        2.94305
C         -8.58855      -15.66678        2.12738
C         -8.54455      -15.25639        0.75827
N         -8.50478      -14.98686       -0.36812
C         -7.51348      -16.51896        2.51187
N         -6.63820      -17.21081        2.83372
C         -9.19140      -16.83290        5.11910
C         -9.83705      -17.49663        6.18207
C        -11.23295      -17.40528        6.35126
C        -11.99191      -16.62623        5.47883
Br       -12.17081      -18.30611        7.73501
Br        -8.73255      -18.51941        7.34539
H          4.97110        1.91948       -1.79752
H          4.18290       -2.44769        0.52030
H          0.42776       -0.41974       -3.92795
H         -2.09788       -5.81855       -3.24936
H         -3.60453       -4.65781       -0.82574
H         -3.42219       -6.92554       -4.58335
H         -6.29873       -5.32857       -4.14853
H         -4.92400       -7.66145       -6.30180
H         -6.33272       -7.62882       -5.23596
H         -3.92155       -9.47893       -4.88947
H         -5.44881       -9.94182       -5.60849
H         -6.66930       -9.67714       -3.60475
H         -4.16072      -10.66633       -2.74322
H         -6.19400       -9.41889        0.75580
H         -7.73383       -9.99768       -1.84474
H        -10.07662      -10.60659       -1.30810
H         -7.02646      -11.57603        1.53258
H        -12.07481      -13.06427        1.87574
H         -8.11254      -16.91660        5.03196
H        -13.06661      -16.51265        5.59241
