92

C          1.65331       -2.91020        2.66558
O          0.98334       -3.89681        2.88046
C          2.07076       -1.92025        3.66614
C          3.04347       -1.05991        3.12834
C          3.46241        0.02092        3.89570
C          2.92217        0.20123        5.18453
C          1.96711       -0.69617        5.70334
C          1.53376       -1.77678        4.93515
Br         1.18122       -0.49526        7.42067
Br         3.52909        1.71947        6.15739
C          3.35313       -1.51907        1.74405
C          4.47517       -1.24519        1.03274
C          5.50846       -0.40385        1.52592
N          6.34815        0.28603        1.93536
C          4.73075       -1.83938       -0.23308
N          4.91725       -2.33150       -1.27432
C          2.27901       -2.46359        1.37495
C          1.75409       -2.71102        0.16452
C          0.51379       -3.37204       -0.02531
S          0.41893       -5.08264       -0.17940
C         -1.27534       -4.90370       -0.48307
N         -1.66990       -3.64420       -0.46132
N         -0.64212       -2.76522       -0.20553
C         -2.06702       -6.05842       -0.72708
C         -3.35404       -5.94469       -1.08761
C         -4.20185       -7.07620       -1.31776
N         -4.77992       -7.83148       -0.29527
C         -4.66256       -7.58177        1.12935
C         -3.99883       -8.73435        1.86838
C         -5.60565       -8.85329       -0.81209
O         -6.28675       -9.67859       -0.23964
C         -5.45890       -8.68223       -2.26538
C         -4.57308       -7.57524       -2.49987
C         -4.44519       -7.40348       -3.95755
O         -3.78579       -6.57063       -4.54425
N         -5.27841       -8.42564       -4.46556
C         -5.50071       -8.59528       -5.88769
C         -4.38158       -9.37660       -6.55788
C         -5.86589       -9.16523       -3.43838
C         -6.79959      -10.23718       -3.62991
C         -6.48157      -11.40801       -4.20081
C         -7.41934      -12.46956       -4.34098
S         -6.82926      -14.10041       -4.32788
C         -8.41180      -14.82385       -4.45076
C         -9.33167      -13.80749       -4.56893
C         -8.77918      -12.51219       -4.50965
S        -10.03857      -11.31116       -4.66590
C        -11.21705      -12.63621       -4.76429
S        -12.86213      -12.47526       -4.90952
O        -10.67879      -13.90691       -4.70786
C         -8.48428      -16.24898       -4.39811
C         -9.62685      -16.94455       -4.51702
C         -9.63550      -18.41066       -4.40555
C         -9.44491      -19.25798       -5.50110
C         -9.32487      -18.81706       -6.89843
O         -9.48118      -17.67653       -7.29043
S         -8.97675      -20.15013       -7.96116
C         -9.16442      -21.31166       -6.66820
O         -9.11260      -22.51011       -6.86582
C         -9.38298      -20.65751       -5.35946
C         -9.53371      -21.29636       -4.10184
C         -9.73008      -20.42785       -3.01386
C         -9.79018      -19.05069       -3.17536
C        -10.05152      -18.44920       -1.87969
O        -10.22988      -17.27411       -1.63540
O        -10.08246      -19.46530       -0.99543
C         -9.87574      -20.67357       -1.57476
O         -9.81389      -21.71929       -0.96597
C         -9.43009      -22.76582       -3.98917
C        -10.08886      -23.56822       -3.14380
H          4.17114        0.75056        3.51785
H          0.77697       -2.47010        5.28984
H          2.15277       -2.25583       -0.73552
H         -1.61512       -7.03848       -0.60772
H         -3.82042       -4.96801       -1.21593
H         -5.67322       -7.42957        1.52382
H         -4.09736       -6.66322        1.31420
H         -4.57122       -9.66127        1.76359
H         -3.92543       -8.50682        2.93632
H         -2.99078       -8.91902        1.48370
H         -5.55358       -7.59884       -6.34164
H         -6.46680       -9.07939       -6.06339
H         -3.42006       -8.86606       -6.44271
H         -4.58395       -9.48555       -7.62792
H         -4.27724      -10.37692       -6.12855
H         -7.78707      -10.05919       -3.21057
H         -5.45860      -11.58642       -4.52402
H         -7.54994      -16.78193       -4.23226
H        -10.58872      -16.47005       -4.69050
H         -8.76595      -23.26623       -4.69499
H        -10.79775      -23.22568       -2.39944
H         -9.91623      -24.64223       -3.16090
