102

C         -1.29150       -0.62340       -7.43262
O         -0.57858       -1.59992       -7.38226
C         -0.82225        0.72875       -7.14347
C         -1.81090        1.67321       -7.44999
C         -1.56566        2.99696       -7.11472
C         -0.34138        3.33766       -6.49636
C          0.62897        2.35713       -6.20766
C          0.38899        1.02759       -6.54118
Br         2.26727        2.73169       -5.32526
Br        -0.08338        5.17227       -6.06530
C         -2.97615        0.95390       -8.03700
C         -3.96239        1.46158       -8.81495
C         -4.04685        2.85383       -9.10046
N         -4.10194        3.98148       -9.32711
C         -4.94556        0.64984       -9.44526
N         -5.74842       -0.02006       -9.94913
C         -2.75792       -0.48159       -7.74160
C         -3.70176       -1.40593       -7.47659
C         -3.50347       -2.74016       -6.91137
C         -2.56279       -3.67794       -7.32424
F         -1.85156       -3.43513       -8.43728
C         -2.33193       -4.90523       -6.67568
F         -1.32806       -5.60879       -7.18839
C         -3.07340       -5.42465       -5.59840
C         -4.18347       -4.56515       -5.24437
C         -4.38015       -3.20289       -5.89885
N         -5.44249       -2.52719       -5.42190
S         -6.19142       -3.50827       -4.32684
N         -5.17116       -4.79626       -4.35415
C         -2.77233       -6.72243       -4.92712
S         -3.79372       -7.19628       -3.60899
C         -1.82005       -7.72477       -5.07269
C         -0.66410       -8.06734       -5.89686
O         -0.07909       -7.39468       -6.72704
N         -0.26726       -9.32820       -5.49506
C          0.84724      -10.04000       -6.08920
C          0.41086      -11.38719       -6.64819
C         -0.89470       -9.75124       -4.35004
O         -0.57958      -10.69462       -3.64430
C         -1.94637       -8.78979       -4.12241
C         -2.97453       -8.64725       -3.23415
C         -3.48836       -9.35019       -2.11422
C         -3.04050      -10.53384       -1.69336
C         -3.42589      -11.27898       -0.47713
C         -3.03516      -12.64056       -0.37281
C         -2.45735      -13.47444       -1.45274
O         -2.48447      -13.22111       -2.64114
S         -1.84330      -14.98564       -0.85499
C         -2.60355      -14.73611        0.68988
O         -2.57984      -15.60106        1.54201
C         -3.21499      -13.38969        0.80266
C         -3.90930      -12.85700        1.90340
C         -4.34899      -11.53162        1.75990
C         -4.07019      -10.74273        0.65431
C         -4.53818       -9.39207        1.00470
O         -4.35552       -8.33453        0.44105
O         -5.21569       -9.50106        2.17018
C         -5.13615      -10.72905        2.69592
O         -5.68469      -11.11003        3.71022
C         -4.20469      -13.57637        3.14670
C         -3.28311      -14.26876        3.82602
C         -3.46519      -14.85253        5.11248
N         -3.87120      -16.16131        5.38172
C         -4.37153      -17.08501        4.36691
C         -4.63468      -18.51243        4.82942
C         -3.79013      -16.43014        6.77121
O         -4.02779      -17.43980        7.40296
C         -3.31211      -15.15061        7.32918
C         -3.15313      -14.23492        6.24316
C         -2.64143      -12.96447        6.75699
O         -2.38883      -11.96217        6.11822
N         -2.53981      -13.22164        8.14483
C         -2.21103      -12.16542        9.07164
C         -0.91392      -12.38271        9.83022
C         -2.93466      -14.52860        8.44543
C         -2.86171      -15.10939        9.75587
C         -3.88382      -15.72038       10.36525
H         -2.30087        3.77713       -7.28620
H          1.09706        0.23432       -6.31438
H         -4.75414       -1.13784       -7.54463
H          1.61071      -10.18872       -5.31818
H          1.28621       -9.44017       -6.89334
H          0.03553      -12.04483       -5.85738
H          1.25118      -11.89112       -7.13416
H         -0.39181      -11.26332       -7.38303
H         -4.27992       -8.84313       -1.58480
H         -2.30111      -11.02247       -2.31151
H         -5.20182      -13.45394        3.57421
H         -2.25399      -14.34444        3.47193
H         -3.64876      -17.11236        3.54615
H         -5.30813      -16.66439        3.97798
H         -3.72256      -18.97597        5.21852
H         -4.99257      -19.12323        3.99314
H         -5.40180      -18.54503        5.60720
H         -3.05360      -12.04088        9.76132
H         -2.12237      -11.22791        8.51235
H         -1.01553      -13.16311       10.58728
H         -0.63070      -11.46476       10.35718
H         -0.09973      -12.66363        9.15648
H         -1.89338      -15.09252       10.24487
H         -4.86633      -15.80039        9.90789
H         -3.74839      -16.17877       11.33918
