88

C          3.99754       -2.41211        5.59498
O          4.82236       -2.33158        4.71137
C          2.75239       -1.64168        5.69303
C          2.16000       -1.83223        6.95268
C          0.86899       -1.36758        7.15196
C          0.21099       -0.70364        6.09662
C          0.85150       -0.49312        4.85653
C          2.14752       -0.96311        4.64961
Br         0.00392        0.35086        3.38157
Br        -1.58849       -0.17539        6.41574
C          3.07741       -2.67025        7.77723
C          3.12839       -2.74334        9.12736
C          2.23385       -2.01335        9.96384
N          1.49416       -1.41799       10.62565
C          4.12635       -3.51365        9.79593
N          4.93727       -4.16169       10.31109
C          4.00380       -3.29142        6.81190
C          4.44105       -4.56362        6.79671
C          4.79946       -5.19763        5.56953
S          3.53913       -6.00015        4.70167
C          4.57975       -6.53611        3.43710
C          5.84763       -6.01540        3.62068
C          5.98939       -5.32506        4.88626
C          7.20656       -4.85001        5.38542
C          8.31131       -5.14123        4.53502
C          9.70739       -4.83934        5.04677
F          9.71634       -4.31247        6.30361
F         10.47221       -5.96287        5.12007
F         10.38294       -3.95714        4.26748
C          8.15924       -5.77212        3.24386
C          9.30988       -5.98275        2.40276
N         10.23456       -6.15256        1.72382
C          6.91791       -6.23688        2.74262
C          4.11322       -7.47533        2.44189
S          2.99856       -8.73192        2.81585
C          3.40453       -9.46925        1.30692
N          4.19857       -8.71302        0.56906
N          4.59620       -7.55596        1.21944
C          2.90944      -10.78047        1.04585
C          3.47104      -11.56301        0.11165
C          3.05110      -12.94979       -0.13452
C          2.04100      -13.29862       -1.03804
C          1.16188      -12.35622       -1.74724
O          1.11587      -11.15723       -1.55069
S          0.12557      -13.18011       -2.88101
C          0.62552      -14.74551       -2.28949
O          0.06068      -15.77812       -2.59496
C          1.75831      -14.64244       -1.35212
C          2.49001      -15.71812       -0.80024
C          3.48626      -15.34463        0.11562
C          3.71164      -14.02283        0.46573
C          4.69642      -14.00497        1.53500
O          5.01349      -13.06266        2.22861
O          5.13063      -15.27641        1.66541
C          4.49349      -16.13148        0.83160
O          4.75546      -17.31119        0.73140
C          2.26630      -17.11017       -1.24810
C          2.34966      -18.19873       -0.46918
C          2.21883      -19.55728       -0.94895
C          3.16214      -20.50927       -0.86590
C          2.72549      -21.94245       -0.93333
O          1.70598      -22.39380       -1.40817
C          3.75903      -22.70105       -0.20292
C          4.80063      -21.84987        0.20229
C          4.56638      -20.52054       -0.43031
C          5.55147      -19.68699       -0.84097
C          5.32227      -18.65269       -1.79740
N          5.17294      -17.82552       -2.60017
C          6.91766      -19.83919       -0.45603
N          8.02459      -19.98842       -0.13646
C          5.80127      -22.35792        1.01942
C          5.78771      -23.72667        1.34696
C          4.76231      -24.57185        0.87504
C          3.71914      -24.05017        0.10647
Br         4.71474      -26.43646        1.23345
Br         7.21785      -24.35824        2.43078
H          0.33222       -1.55254        8.07804
H          2.65434       -0.86414        3.69304
H          4.28384       -5.22769        7.64255
H          7.32267       -4.35502        6.34366
H          6.83955       -6.73373        1.78090
H          2.09789      -11.15085        1.66371
H          4.30405      -11.20134       -0.49207
H          2.04535      -17.24194       -2.30900
H          2.52993      -18.12126        0.60068
H          1.20369      -19.83710       -1.23937
H          6.59590      -21.72816        1.40987
H          2.89802      -24.66811       -0.24554
