91

C          0.96894        0.47436        0.59498
O         -0.16665        0.30822        0.98243
C          1.53895        1.74176        0.12622
C          2.94219        1.67789        0.13986
C          3.65580        2.74570       -0.38196
C          2.95291        3.85833       -0.88645
C          1.54247        3.89889       -0.86536
C          0.81929        2.82531       -0.34695
Br         0.53734        5.35210       -1.56092
Br         4.00289        5.26440       -1.62035
C          3.34227        0.34538        0.67726
C          4.52470        0.01441        1.24754
C          5.60331        0.93239        1.35041
N          6.48259        1.69150        1.42571
C          4.74570       -1.26111        1.84613
N          4.89955       -2.31332        2.31243
C          2.12320       -0.48508        0.61899
C          2.02376       -1.80254        0.38397
C          0.80613       -2.42967        0.01215
S          0.53016       -4.07709        0.43395
C         -0.93718       -4.00149       -0.46961
N         -1.15984       -2.81495       -0.99585
N         -0.14549       -1.92542       -0.74636
C         -1.74653       -5.15825       -0.58142
C         -2.90924       -5.10577       -1.24635
C         -3.77590       -6.23213       -1.39803
N         -4.39497       -6.89781       -0.33780
C         -4.32937       -6.52911        1.06572
C         -5.39128       -5.51788        1.46598
C         -5.22038       -7.94433       -0.80259
O         -5.92621       -8.71755       -0.18903
C         -5.04054       -7.87333       -2.26434
C         -4.13594       -6.79715       -2.55246
C         -3.96714       -6.72117       -4.01549
O         -3.26593       -5.94920       -4.63525
N         -4.81055       -7.75276       -4.47886
C         -4.97430       -8.04271       -5.89313
C         -6.06512       -7.20450       -6.54732
C         -5.43255       -8.41162       -3.41781
C         -6.35396       -9.49184       -3.56789
C         -7.51429       -9.38090       -4.22900
C         -8.38450      -10.48302       -4.35675
S         -9.37219      -10.65347       -5.74391
C        -10.03063      -12.15471       -5.20237
C         -9.53007      -12.46326       -3.94561
C         -8.59451      -11.51139       -3.47037
C         -9.88447      -13.60508       -3.15824
N        -10.14870      -14.54158       -2.52898
C        -10.95874      -12.81652       -6.06975
C        -11.09709      -14.14966       -6.04395
C        -12.03699      -14.87760       -6.85919
C        -12.61999      -16.05184       -6.56944
C        -13.81341      -16.42386       -7.39958
O        -14.11885      -16.01517       -8.50009
C        -14.60651      -17.33923       -6.56543
C        -13.95150      -17.59320       -5.34935
C        -12.59515      -16.96238       -5.40896
C        -11.52297      -17.39310       -4.70369
C        -10.18056      -17.09792       -5.08504
N         -9.09008      -16.89166       -5.40851
C        -11.61939      -18.30358       -3.61256
N        -11.71052      -19.04925       -2.72995
C        -14.60430      -18.37178       -4.40187
C        -15.85933      -18.93114       -4.71004
C        -16.47251      -18.68605       -5.95343
C        -15.84699      -17.86349       -6.89133
Br       -18.15104      -19.42743       -6.44099
Br       -16.64958      -20.03209       -3.37509
H          4.73998        2.73326       -0.44533
H         -0.26698        2.80371       -0.34407
H          2.90366       -2.43448        0.33741
H         -1.40900       -6.08361       -0.12409
H         -3.23395       -4.18837       -1.73747
H         -3.33797       -6.13637        1.30620
H         -4.45920       -7.43821        1.66353
H         -5.26861       -4.57408        0.92394
H         -5.31817       -5.30272        2.53731
H         -6.39832       -5.89576        1.26202
H         -5.16554       -9.11245       -6.03320
H         -4.02689       -7.82052       -6.39737
H         -7.05205       -7.40080       -6.13215
H         -6.12562       -7.42503       -7.61647
H         -5.87944       -6.13505       -6.41412
H         -6.06407      -10.42090       -3.08050
H         -7.82090       -8.44353       -4.67462
H         -8.09443      -11.57332       -2.50963
H        -11.55518      -12.21445       -6.74867
H        -10.47109      -14.71883       -5.38127
H        -12.35586      -14.35285       -7.76403
H        -14.17646      -18.57080       -3.42497
H        -16.30333      -17.63413       -7.85052
