100

C          2.84405       -2.06851        2.14739
O          2.26401       -2.93260        2.76562
C          3.38945       -0.83156        2.71998
C          4.33332       -0.26266        1.84971
C          4.90587        0.95228        2.20087
C          4.53508        1.56430        3.41554
C          3.58923        0.96309        4.27023
C          3.00926       -0.25733        3.92381
Br         3.01373        1.75632        5.89757
Br         5.36223        3.22977        3.81751
C          4.45990       -1.15377        0.65798
C          5.50644       -1.21561       -0.20033
C          6.62189       -0.33724       -0.11151
N          7.52489        0.38650       -0.03730
C          5.60095       -2.20853       -1.21648
N          5.64933       -3.02414       -2.04612
C          3.30332       -2.07793        0.71795
C          2.64960       -2.65658       -0.30208
C          1.39641       -3.32183       -0.19314
S          0.99942       -4.54991       -1.34143
C         -0.55449       -4.67877       -0.59908
N         -0.71168       -3.83785        0.40407
N          0.40089       -3.05299        0.62645
C         -1.47996       -5.63765       -1.09362
C         -2.69083       -5.79360       -0.53259
C         -3.64825       -6.79053       -0.94187
N         -4.57810       -7.37786       -0.06415
C         -4.64711       -7.15221        1.37258
C         -5.99827       -7.46260        2.00966
C         -5.32833       -8.37734       -0.71322
O         -6.14324       -9.16699       -0.28150
C         -4.86180       -8.28756       -2.09967
C         -3.83094       -7.29511       -2.17012
C         -3.37943       -7.23101       -3.57399
O         -2.52352       -6.50341       -4.03594
N         -4.19234       -8.19256       -4.21658
C         -4.11758       -8.40925       -5.65063
C         -3.76963       -9.83481       -6.05510
C         -5.07355       -8.79769       -3.31144
C         -6.09308       -9.74083       -3.67522
C         -6.54716      -10.74468       -2.89942
C         -7.58575      -11.62133       -3.33319
S         -7.67495      -12.07794       -4.96980
C         -9.07608      -13.03785       -4.77439
C         -9.51648      -12.95981       -3.45501
C         -8.59357      -12.23789       -2.60339
C         -8.79153      -12.11588       -1.11249
C         -9.83073      -13.09342       -0.55096
N         -9.13023      -14.40407       -0.28463
O         -9.10384      -15.25143       -1.18705
O         -8.64122      -14.54944        0.83953
C        -11.04669      -13.36323       -1.43424
N        -12.01489      -12.20874       -1.29987
O        -13.21411      -12.48035       -1.43413
O        -11.56477      -11.08291       -1.06440
C        -10.78835      -13.57918       -2.93221
C         -9.70124      -13.64255       -5.91657
C         -9.07290      -14.01010       -7.04931
C         -9.87050      -14.04687       -8.31986
O        -11.04957      -14.27347       -8.45163
C         -8.92069      -13.61507       -9.37130
C         -7.63560      -13.44715       -8.82814
C         -7.66739      -14.01787       -7.46465
C         -6.66561      -14.73077       -6.89525
C         -6.93017      -15.63451       -5.82324
N         -7.16427      -16.42844       -5.01397
C         -5.34377      -14.74771       -7.42757
N         -4.27401      -14.73061       -7.87447
C         -6.64520      -12.83557       -9.58060
C         -6.93191      -12.49138      -10.91196
C         -8.19971      -12.76265      -11.47230
C         -9.21949      -13.31084      -10.68747
Br        -8.61757      -12.40680      -13.29018
Br        -5.53760      -11.64458      -11.89004
H          5.61835        1.45977        1.55756
H          2.26284       -0.74041        4.54745
H          3.01813       -2.55378       -1.31823
H         -1.16696       -6.25482       -1.93038
H         -2.97077       -5.15534        0.30272
H         -4.43400       -6.09821        1.57113
H         -3.86635       -7.75916        1.84310
H         -6.80963       -6.94274        1.48900
H         -6.00449       -7.15157        3.05803
H         -6.21518       -8.53515        1.99843
H         -3.35056       -7.74546       -6.06895
H         -5.07104       -8.10008       -6.09275
H         -2.72575      -10.06142       -5.81680
H         -3.90663       -9.96128       -7.13416
H         -4.39058      -10.58068       -5.55441
H         -6.52216       -9.57289       -4.66047
H         -6.15414      -10.90487       -1.89964
H         -9.10982      -11.08704       -0.90241
H         -7.83123      -12.24049       -0.59558
H        -10.14727      -12.75879        0.44758
H        -11.61988      -14.21697       -1.04361
H        -11.63051      -13.21243       -3.53476
H        -10.73035      -14.65840       -3.12398
H        -10.79053      -13.65972       -5.90430
H         -5.66809      -12.61190       -9.16077
H        -10.21800      -13.48669      -11.07680
