96

C         -1.89745       -6.39480        8.92483
O         -2.33441       -7.26043        8.18986
C         -2.25382       -6.22553       10.33504
C         -1.53466       -5.16338       10.90194
C         -1.75009       -4.89691       12.25243
C         -2.67959       -5.66217       12.98554
C         -3.40143       -6.70073       12.37241
C         -3.17979       -6.99476       11.03145
Br        -4.70676       -7.73541       13.28422
Br        -2.89183       -5.21543       14.82455
C         -0.66962       -4.54126        9.84612
C          0.17146       -3.48978       10.01927
C          0.32421       -2.80825       11.25966
N          0.44636       -2.24294       12.26489
C          0.98460       -2.95760        8.97934
N          1.65015       -2.51293        8.13678
C         -0.92092       -5.29536        8.59014
C         -0.48753       -5.10682        7.32808
C         -0.90773       -5.93593        6.19287
C         -2.05082       -5.63765        5.45871
C         -2.84784       -4.42799        5.47504
O         -2.58061       -3.39198        6.04720
O         -3.91454       -4.67312        4.68393
C         -3.89082       -5.92536        4.15931
O         -4.78663       -6.42961        3.51619
C         -2.61450       -6.51791        4.55627
C         -1.99767       -7.73261        4.22284
C         -0.81482       -8.00635        4.92579
C         -0.30064       -7.14471        5.87462
C          0.89906       -7.73946        6.42807
O          1.61276       -7.26692        7.28846
O          1.07071       -8.91179        5.77288
C          0.09189       -9.14594        4.86038
O          0.00913      -10.11322        4.13428
C         -2.51038       -8.68162        3.22890
C         -3.14348       -8.31084        2.10722
C         -3.62013       -9.26898        1.18418
O         -4.77363       -9.03866        0.45870
C         -4.90319      -10.12640       -0.33470
C         -3.82329      -10.95993       -0.10216
N         -3.04463      -10.42595        0.88346
C         -3.68336      -12.12363       -0.86269
C         -4.64707      -12.41510       -1.83064
C         -5.74132      -11.57132       -1.95952
C         -5.90391      -10.40131       -1.24470
O         -6.56368      -12.09222       -2.90197
C         -5.86735      -13.16140       -3.38320
N         -4.73089      -13.41376       -2.76637
C         -6.44548      -13.82379       -4.53273
C         -6.25580      -15.18699       -4.77154
C         -5.73943      -16.17652       -3.81683
O         -5.78958      -16.05944       -2.60758
S         -5.31002      -17.66238       -4.62718
C         -6.10593      -17.14855       -6.09692
O         -6.12608      -17.80928       -7.12035
C         -6.66228      -15.79109       -5.97036
C         -7.46319      -15.10799       -6.90520
C         -7.75842      -13.78116       -6.57376
C         -7.18025      -13.13929       -5.49886
C         -7.45534      -11.71591       -5.65651
O         -6.90727      -10.78389       -5.11338
O         -8.39363      -11.62442       -6.62654
C         -8.69098      -12.82614       -7.16701
O         -9.60617      -13.05241       -7.92864
C         -8.00117      -15.76774       -8.10653
C         -8.23176      -15.13559       -9.26987
C         -8.82585      -15.76209      -10.42306
C         -8.28232      -16.75935      -11.12626
C         -9.16128      -17.56749      -12.02420
O        -10.20221      -17.24200      -12.55205
C         -8.54203      -18.90467      -12.04135
C         -7.32318      -18.89033      -11.33762
C         -7.02118      -17.48326      -10.96579
C         -5.79734      -16.94126      -10.75059
C         -5.57558      -15.53106      -10.66329
N         -5.37001      -14.39139      -10.56213
C         -4.62100      -17.73264      -10.68411
N         -3.65502      -18.37841      -10.63376
C         -6.68375      -20.09253      -11.08299
C         -7.24292      -21.28062      -11.58864
C         -8.43966      -21.25920      -12.33672
C         -9.10992      -20.05523      -12.55853
Br        -9.23574      -22.82591      -13.05623
Br        -6.31453      -22.89136      -11.18914
H         -1.22547       -4.10840       12.77982
H         -3.71626       -7.79637       10.52523
H          0.17193       -4.29979        7.03223
H         -2.33228       -9.74297        3.41306
H         -3.35477       -7.28146        1.85141
H         -2.82946      -12.77480       -0.71386
H         -6.74279       -9.73597       -1.40480
H         -8.23072      -16.82979       -8.01546
H         -8.02489      -14.07776       -9.41563
H         -9.82581      -15.39925      -10.67072
H         -5.78186      -20.14140      -10.47983
H        -10.05653      -20.00805      -13.08950
