91

C          1.03907       -3.79096        0.70499
O          1.00816       -4.96472        0.40452
C          1.97926       -3.21245        1.66919
C          2.00687       -1.81576        1.56001
C          2.79115       -1.10534        2.46102
C          3.53366       -1.80791        3.43479
C          3.48694       -3.21458        3.50707
C          2.70141       -3.93115        2.60758
Br         4.42440       -4.22481        4.81294
Br         4.56976       -0.76341        4.64077
C          1.08271       -1.42296        0.45227
C          1.12595       -0.26265       -0.24709
C          2.04375        0.78505        0.05604
N          2.79456        1.63233        0.31130
C          0.30522       -0.03221       -1.38916
N         -0.37561        0.14638       -2.31120
C          0.26030       -2.62805        0.15271
C         -0.99673       -2.69794       -0.32513
C         -1.78419       -3.88839       -0.36351
O         -1.66594       -4.91148        0.53699
C         -2.54814       -5.93388        0.25583
C         -3.31393       -5.50997       -0.82431
C         -2.83257       -4.21995       -1.20475
N         -4.37935       -6.22258       -1.47740
O         -4.71651       -7.32245       -1.02623
O         -4.90529       -5.65252       -2.44331
C         -2.54301       -7.14006        1.01376
C         -1.40660       -7.54251        1.60258
C         -1.27213       -8.76684        2.33103
N         -0.88773       -8.80975        3.67072
C         -0.70951       -7.65608        4.53067
C         -2.00357       -7.27841        5.23369
C         -0.84716      -10.13231        4.15579
O         -0.61144      -10.55229        5.26982
C         -1.20209      -10.92195        2.96439
C         -1.45083      -10.01129        1.88091
C         -1.81524      -10.80564        0.69384
O         -2.09533      -10.39150       -0.41151
N         -1.77156      -12.12896        1.18228
C         -2.17030      -13.26484        0.37141
C         -1.01697      -13.85246       -0.42593
C         -1.39233      -12.16431        2.52481
C         -1.28939      -13.36472        3.29702
C         -0.42838      -14.35392        3.01368
C         -0.35510      -15.63457        3.71484
C         -1.10341      -15.96355        4.82737
N         -1.06125      -17.15946        5.44598
C         -0.24359      -18.07160        4.90709
N          0.55753      -17.87260        3.84545
C          0.47876      -16.64874        3.27626
C         -0.20974      -19.36738        5.56789
C          0.10318      -20.56151        5.04774
C          0.37710      -21.67198        6.01400
O          0.07301      -21.74015        7.18597
C          1.17065      -22.65885        5.26307
C          1.33547      -22.25019        3.92849
C          0.48344      -21.04297        3.70992
C         -0.07140      -20.69516        2.52096
C         -1.22137      -19.85395        2.43314
N         -2.19160      -19.22567        2.32410
C          0.34607      -21.24889        1.27192
N          0.69124      -21.69174        0.26031
C          2.13915      -23.01842        3.09656
C          2.68883      -24.21907        3.58600
C          2.45810      -24.63065        4.91378
C          1.70855      -23.82831        5.77546
Br         3.11217      -26.26944        5.61626
Br         3.71649      -25.24793        2.35908
H          2.83566       -0.02007        2.45616
H          2.62282       -5.01415        2.64198
H         -1.52032       -1.80173       -0.64099
H         -3.21229       -3.61978       -2.02138
H         -3.44938       -7.73490        1.08487
H         -0.49810       -6.94476        1.53416
H         -0.33351       -6.80978        3.94600
H          0.05314       -7.89622        5.27985
H         -2.80448       -7.08347        4.51272
H         -1.86073       -6.37839        5.83891
H         -2.33913       -8.08576        5.89280
H         -2.94160      -12.92800       -0.33091
H         -2.63393      -14.02734        1.00719
H         -0.57349      -13.10402       -1.08839
H         -1.36289      -14.69752       -1.02806
H         -0.21672      -14.22167        0.21531
H         -1.97375      -13.41421        4.13933
H          0.26602      -14.23533        2.18744
H         -1.79485      -15.26094        5.28172
H          1.12566      -16.51644        2.41169
H         -0.42338      -19.28529        6.63375
H          2.34860      -22.72921        2.07130
H          1.53103      -24.10504        6.81103
