86

C          1.67130       -1.87134       -1.70924
O          1.91757       -3.03520       -1.47330
C          2.22150       -1.07857       -2.81926
C          1.92898        0.28339       -2.64484
C          2.29029        1.17207       -3.64920
C          2.95835        0.68663       -4.79153
C          3.25113       -0.68511       -4.92954
C          2.87944       -1.58438       -3.92924
Br         4.11853       -1.40941       -6.45620
Br         3.42255        1.96927       -6.11805
C          1.20477        0.44136       -1.34932
C          1.10497        1.57697       -0.61692
C          1.65499        2.81877       -1.04062
N          2.11652        3.82498       -1.38716
C          0.52012        1.59155        0.67999
N          0.03204        1.58891        1.73537
C          0.80929       -0.92054       -0.93019
C         -0.21511       -1.32689       -0.16339
C         -0.62459       -2.68658        0.04823
C         -0.66240       -3.38935        1.18220
C         -1.23404       -4.68590        0.95375
C         -1.62355       -4.85528       -0.31909
C         -1.24230       -3.57283       -0.97057
O         -1.44410       -3.23373       -2.12219
C         -2.35012       -5.96575       -0.86964
N         -2.20033       -6.53037       -2.14214
C         -1.31954       -6.12357       -3.21468
C         -2.04024       -5.28552       -4.26301
C         -3.08111       -7.61284       -2.34771
O         -3.20751       -8.31374       -3.33149
C         -3.81685       -7.69781       -1.07458
C         -3.30757       -6.65186       -0.22604
C         -4.04200       -6.71535        1.04901
O         -3.90465       -5.99027        2.01309
N         -4.91505       -7.80387        0.85781
C         -5.87881       -8.17786        1.87771
C         -7.22022       -7.48701        1.68361
C         -4.77006       -8.36787       -0.41925
C         -5.56496       -9.48734       -0.85808
C         -5.48955      -10.11384       -2.04227
C         -6.31043      -11.22383       -2.42392
C         -6.07216      -12.14885       -3.36175
C         -7.17995      -13.05564       -3.48975
C         -8.19695      -12.68463       -2.70679
C         -7.67524      -11.52513       -1.93873
O         -8.28922      -10.91327       -1.08027
C         -9.48161      -13.29618       -2.53297
C        -10.64167      -12.69153       -2.22986
C        -11.74418      -13.55027       -1.69027
O        -11.87006      -14.75278       -1.78498
C        -12.61498      -12.63694       -0.92962
C        -12.16976      -11.31156       -1.05542
C        -11.06421      -11.29098       -2.05520
C        -10.72802      -10.23014       -2.82603
C         -9.89063      -10.36034       -3.97608
N         -9.23033      -10.46934       -4.92147
C        -11.25751       -8.92419       -2.62766
N        -11.69789       -7.86259       -2.46723
C        -12.78751      -10.32571       -0.29990
C        -13.88589      -10.66934        0.50966
C        -14.34573      -12.00012        0.57489
C        -13.69107      -13.00543       -0.13983
Br       -15.84522      -12.52418        1.61545
Br       -14.69884       -9.25444        1.48700
H          2.05311        2.23040       -3.59394
H          3.06667       -2.65104       -4.01461
H         -0.89452       -0.61210        0.29308
H         -0.35773       -3.03648        2.15669
H         -1.38025       -5.39069        1.76172
H         -0.96676       -7.03653       -3.71360
H         -0.43378       -5.62329       -2.81567
H         -2.88434       -5.82991       -4.69876
H         -1.35382       -5.01542       -5.07057
H         -2.45435       -4.36792       -3.84278
H         -5.47613       -7.88725        2.85513
H         -5.99790       -9.26566        1.90382
H         -7.10225       -6.39857        1.66088
H         -7.90027       -7.73910        2.50360
H         -7.69311       -7.79146        0.74451
H         -6.28368       -9.86522       -0.13629
H         -4.77980       -9.81036       -2.80160
H         -5.17812      -12.21215       -3.96712
H         -7.17719      -13.88968       -4.17723
H         -9.45773      -14.38714       -2.57383
H        -12.44248       -9.29596       -0.30911
H        -13.99832      -14.04571       -0.08447
