74

C         -0.79120        1.08250       -3.24392
O         -1.25745        0.22362       -3.95916
C          0.22822        2.07038       -3.62169
C          0.26034        3.12064       -2.68819
C          1.21608        4.11439       -2.84633
C          2.11595        4.03570       -3.92968
C          2.06310        2.96046       -4.84129
C          1.09951        1.96356       -4.69235
Br         3.28470        2.76183       -6.28193
Br         3.39560        5.43559       -4.07896
C         -0.77659        2.84780       -1.64978
C         -1.36831        3.74221       -0.82322
C         -1.00644        5.11576       -0.80406
N         -0.70283        6.23732       -0.79996
C         -2.45693        3.38291        0.02971
N         -3.33005        3.06303        0.71769
C         -1.17318        1.43991       -1.84088
C         -1.56217        0.53943       -0.92706
C         -1.70094       -0.83953       -1.22073
S         -3.24519       -1.48435       -1.61510
C         -2.53362       -3.05850       -1.56504
N         -1.23093       -3.02737       -1.35309
N         -0.75395       -1.75148       -1.13863
C         -3.37198       -4.19753       -1.69050
C         -2.86136       -5.43619       -1.61710
C         -3.72783       -6.54747       -1.66860
S         -4.40580       -7.27945       -0.27247
C         -5.34120       -8.42001       -1.18817
C         -5.03882       -8.21523       -2.49837
C         -4.13802       -7.19269       -2.80044
S         -3.73776       -6.93605       -4.54111
C         -4.84376       -8.26086       -4.84811
C         -5.11196       -8.70322       -6.18402
N         -5.35434       -9.07441       -7.25515
C         -5.43366       -8.83842       -3.71533
C         -6.18879       -9.32716       -0.49969
C         -7.31681       -9.79602       -1.05695
C         -8.22004      -10.73635       -0.39683
C         -9.57570      -10.72757       -0.66520
N        -10.46213      -11.57648       -0.10892
C         -9.94926      -12.50419        0.70981
N         -8.65151      -12.62703        1.04252
C         -7.81688      -11.73327        0.47142
C        -10.89814      -13.40506        1.34152
C        -10.69723      -14.66110        1.75860
C        -11.69768      -15.19318        2.73545
O        -12.81708      -14.78615        2.96363
C        -11.00887      -16.27684        3.45017
C         -9.73279      -16.49677        2.90566
C         -9.58054      -15.61791        1.70518
C         -8.74175      -15.84165        0.66340
C         -8.86192      -15.16175       -0.58641
N         -8.94631      -14.65538       -1.62833
C         -7.73789      -16.85492        0.68350
N         -6.91971      -17.67858        0.70418
C         -8.90704      -17.42563        3.52498
C         -9.38568      -18.14069        4.64099
C        -10.68089      -17.91192        5.14636
C        -11.50438      -16.95751        4.55057
Br       -11.38944      -18.84455        6.64102
Br        -8.19937      -19.41443        5.40886
H          1.30942        4.93904       -2.14578
H          1.04268        1.10903       -5.36131
H         -1.68511        0.79819        0.11863
H         -4.44242       -4.04482       -1.80214
H         -1.79560       -5.61150       -1.49031
H         -6.12202       -9.67239       -3.78996
H         -5.91394       -9.60284        0.51556
H         -7.64005       -9.46416       -2.04012
H        -10.01383      -10.00984       -1.35417
H         -6.77111      -11.86416        0.73992
H        -11.84868      -12.91421        1.54742
H         -7.89536      -17.61571        3.18063
H        -12.49862      -16.73563        4.92874
