80

C          0.93049        0.31043       -1.89491
F          0.56609       -0.88309       -2.25895
C          0.18181        1.44266       -2.04223
C         -1.09554        1.66904       -2.60522
N         -2.14590        1.85586       -3.06604
O          0.85094        2.50451       -1.51991
C          2.06929        2.04585       -1.07102
C          2.94975        3.06910       -0.55563
O          4.17520        3.05026       -0.55163
C          2.14820        0.66857       -1.25785
C          3.24372       -0.27359       -0.84840
S          4.63358        0.16235        0.03056
C          5.24468       -1.44009        0.09301
C          4.39422       -2.29637       -0.58550
C          3.23922       -1.62985       -1.10684
C          4.63580       -3.70029       -0.74855
N          4.82618       -4.84151       -0.83821
C          6.47892       -1.64509        0.77461
C          6.74411       -2.77089        1.45518
C          8.00211       -3.00532        2.09649
N          8.14304       -3.28417        3.45847
C          7.10584       -3.28447        4.46965
C          6.47861       -4.64861        4.70583
C          9.49828       -3.42834        3.81399
O         10.00259       -3.64324        4.89678
C         10.18806       -3.21351        2.53458
C          9.20778       -2.97612        1.51832
C          9.92694       -2.75687        0.24571
O          9.44197       -2.54737       -0.84705
N         11.28276       -2.85439        0.63214
C         12.36900       -2.80550       -0.32813
C         12.85888       -1.39533       -0.61186
C         11.40036       -3.11043        1.99540
C         12.63252       -3.17984        2.71330
C         12.95307       -4.22208        3.49216
C         14.11959       -4.25066        4.32712
C         14.73196       -5.39253        4.69875
C         15.85036       -5.05402        5.58138
C         15.80694       -3.59045        5.73023
C         14.77449       -3.14108        4.99990
C         16.65355       -2.72925        6.46508
N         17.35235       -1.99172        7.02636
C         16.70600       -5.94094        6.12888
C         17.81385       -5.60012        7.01525
C         18.42602       -6.73221        7.41396
C         17.75856       -7.84989        6.75432
C         16.74213       -7.40173        5.99608
C         15.90674       -8.25019        5.23263
N         15.22970       -8.95534        4.60945
C         19.54717       -6.84682        8.28268
C         19.89852       -6.02576        9.35159
O         21.07054       -6.47721        9.91317
C         21.44690       -7.58615        9.22371
C         20.54768       -7.84553        8.22904
F         20.61506       -8.82888        7.38078
C         22.62910       -8.24864        9.62455
N         23.59932       -8.79003        9.95670
C         19.30139       -4.87351        9.98436
O         18.20547       -4.38962        9.71866
H          2.42586        3.96017       -0.16958
H          2.45600       -2.14761       -1.64872
H          7.21281       -0.83827        0.74857
H          6.02427       -3.57777        1.54856
H          6.34256       -2.54279        4.21497
H          7.56226       -2.95897        5.41260
H          5.92562       -4.99305        3.82721
H          5.77790       -4.59270        5.54665
H          7.23485       -5.40213        4.94930
H         12.00813       -3.24268       -1.26668
H         13.19634       -3.43334        0.02018
H         12.05742       -0.77178       -1.02066
H         13.67233       -1.42258       -1.34534
H         13.23525       -0.91257        0.29505
H         13.27159       -2.30343        2.65276
H         12.30484       -5.09734        3.53782
H         14.42350       -6.37149        4.37286
H         14.45271       -2.11281        4.91630
H         18.10739       -4.60887        7.31206
H         18.05084       -8.88471        6.86580
H         19.91097       -4.42715       10.78917
