70

C          3.76939        0.42541        4.76473
C          3.05847        0.91982        5.82741
S          1.35704        0.77598        5.53970
C          1.60883        0.06781        4.01098
Cl         0.25874       -0.38357        3.05810
C          2.93596       -0.05555        3.72591
C          3.66872       -0.56284        2.60213
O          3.21648       -1.00739        1.56683
C          5.13290       -0.37761        3.03386
C          5.16199        0.26369        4.40998
C          6.22685        0.61532        5.17411
C          6.06787        1.21825        6.45556
N          5.95729        1.69359        7.51149
C          7.57756        0.42447        4.77178
N          8.68116        0.26591        4.44433
C          6.15635       -0.75308        2.24077
C          5.99168       -1.37341        0.96846
S          6.02521       -0.42847       -0.45720
C          5.72582       -1.78483       -1.46632
C          5.44422       -1.49918       -2.85692
O          4.75870       -2.19621       -3.60586
C          5.73522       -2.97239       -0.75448
C          5.86223       -2.71531        0.65723
C          5.59969       -4.36329       -1.33781
S          4.89919       -5.67789       -0.45829
C          5.12244       -6.83584       -1.74279
C          5.64883       -6.17202       -2.82708
C          6.00301       -4.81649       -2.56666
C          6.76639       -4.29009       -3.68290
O          7.43926       -3.26896       -3.69390
C          6.71040       -5.31890       -4.81379
C          6.03645       -6.53495       -4.17879
O          5.86682       -7.61091       -4.73124
C          4.81167       -8.20621       -1.47524
C          5.47484       -9.20408       -2.08174
C          5.31919      -10.57284       -1.72136
S          5.58225      -11.78428       -2.91214
C          5.44853      -13.05276       -1.77781
C          5.71351      -14.39992       -2.23353
O          5.27962      -15.41820       -1.69904
C          5.12645      -12.58367       -0.51783
C          5.07478      -11.15667       -0.48993
C          5.10983      -13.41226        0.64882
C          4.10402      -14.13387        1.16888
C          4.53026      -15.24047        2.12710
O          5.55450      -15.32237        2.77723
C          3.43623      -16.16642        2.02762
C          3.17520      -17.39934        2.54229
S          1.66951      -17.99684        2.00811
C          1.34434      -16.56551        1.08578
C          2.37958      -15.67825        1.21186
C          2.67536      -14.32521        0.79973
C          1.76988      -13.38366        0.44959
C          0.41171      -13.71191        0.16976
N         -0.69507      -13.98131       -0.05771
C          2.05030      -11.99058        0.52924
N          2.21581      -10.85069        0.67710
Cl         4.13450      -18.34118        3.60386
H          3.38266        1.35972        6.76072
H          7.19144       -0.60672        2.51921
H          5.87724       -0.55951       -3.24634
H          5.87780       -3.48760        1.41756
H          7.72238       -5.58112       -5.12928
H          6.10064       -4.94086       -5.63743
H          4.07809       -8.42625       -0.70098
H          6.21681       -8.99898       -2.84671
H          6.36762      -14.48549       -3.12142
H          4.92547      -10.57248        0.41179
H          6.10265      -13.55392        1.08491
H          0.41154      -16.49391        0.54254
