96

C         12.87629        1.32164        1.35397
C         14.06857        1.85455        0.93990
S         13.88732        3.54063        0.58296
C         12.23159        3.51844        0.98603
Cl        11.30359        4.95066        0.83707
C         11.82793        2.27966        1.38362
C         10.57549        1.71793        1.79664
O          9.49824        2.26619        1.94368
C         10.90852        0.23381        1.97004
C         12.38317        0.02878        1.76572
C         13.10905       -1.09534        1.97749
C         14.50963       -1.13530        1.75074
N         15.65816       -1.16356        1.55639
C         12.54927       -2.31536        2.45043
N         12.09338       -3.31253        2.82994
C          9.93582       -0.67699        2.16899
C          8.50956       -0.35953        2.29156
C          7.65177       -0.29696        1.19133
C          8.01139       -0.71549       -0.16667
O          9.08170       -1.20945       -0.47558
S          6.68343       -0.49565       -1.26825
C          5.70140        0.26384       -0.02719
O          4.65598        0.83210       -0.27491
C          6.32631        0.15358        1.30375
C          5.76041        0.46404        2.55821
C          6.61906        0.32109        3.65667
C          7.94111       -0.04562        3.51769
C          8.56510       -0.04281        4.82505
O          9.72749       -0.28839        5.07474
O          7.58156        0.27019        5.69949
C          6.38786        0.49030        5.08508
O          5.33340        0.71930        5.63795
C          4.39401        0.98732        2.72741
C          3.28383        0.28910        3.03902
C          1.95388        0.86530        3.21852
N          0.78694        0.09507        3.48389
C          0.70508       -1.34539        3.68927
C         -0.62135       -1.98571        3.27033
C         -0.34478        0.92305        3.65856
O         -1.50080        0.66920        3.92770
C          0.19200        2.25240        3.40805
C          1.60145        2.16475        3.15548
C          2.05782        3.56650        2.92812
O          3.17846        3.96114        2.67810
N          0.87771        4.32664        3.06363
C          0.83259        5.76056        2.84198
C          0.52231        6.12941        1.39747
C         -0.20815        3.51724        3.34815
C         -1.52408        4.01289        3.57648
C         -2.59298        3.60413        2.88086
C         -3.87598        4.10309        3.20712
S         -5.23866        3.12107        2.94112
C         -6.33670        4.28526        3.59330
C         -5.64311        5.41312        4.00211
C         -4.24326        5.31243        3.75920
C         -6.23307        6.57139        4.60731
N         -6.64888        7.52063        5.12931
C         -7.73101        3.98988        3.67326
C         -8.32864        3.20071        2.76875
C         -9.72312        2.86239        2.81275
C        -10.59911        3.06261        1.81888
C        -11.84060        2.18722        1.86034
O        -12.32273        1.60274        2.81037
C        -12.22467        2.15504        0.47724
C        -13.16506        1.47756       -0.23545
S        -13.08210        1.85019       -1.89724
C        -11.75934        2.94539       -1.66289
C        -11.42488        3.00276       -0.33670
C        -10.48553        3.72480        0.48805
C         -9.83222        4.86697        0.16212
C         -9.85225        5.38325       -1.16603
N         -9.86516        5.79137       -2.25206
C         -9.17134        5.69815        1.11986
N         -8.65590        6.42457        1.86057
Cl       -14.32829        0.35561        0.33008
H         15.04100        1.40074        0.80432
H         10.12602       -1.74234        2.22111
H          4.35520        2.06424        2.60315
H          3.36743       -0.78357        3.18052
H          0.88060       -1.54591        4.75208
H          1.49303       -1.83266        3.10965
H         -1.46446       -1.62764        3.86845
H         -0.58771       -3.06972        3.41497
H         -0.84200       -1.78244        2.21719
H          1.80880        6.17781        3.10976
H          0.09266        6.21154        3.51182
H          1.28674        5.74288        0.71569
H          0.49025        7.21874        1.28746
H         -0.44559        5.72993        1.07730
H         -1.61858        4.71998        4.39581
H         -2.50176        2.85205        2.09834
H         -3.53077        6.09335        3.99904
H         -8.31718        4.46929        4.45511
H         -7.77258        2.74563        1.94990
H        -10.00263        2.24145        3.66739
H        -11.34429        3.45620       -2.52159
