82

C         -1.39392       -0.71968       -2.22005
C         -2.68148       -0.31725       -2.46032
S         -3.70875       -1.69229       -2.68720
C         -2.41404       -2.78069       -2.47061
Cl        -2.70262       -4.46462       -2.59303
C         -1.24099       -2.12873       -2.23224
C          0.11638       -2.54748       -2.01253
O          0.54420       -3.67924       -1.90791
C          0.87540       -1.21543       -1.95613
C         -0.12354       -0.08236       -1.96405
C          0.08020        1.23019       -1.69798
C         -0.98770        2.17255       -1.67307
N         -1.85920        2.93835       -1.64755
C          1.35492        1.77080       -1.37839
N          2.40064        2.21281       -1.12070
C          2.22118       -1.15932       -1.99884
C          3.14446       -2.30117       -2.02539
C          3.52282       -2.88260       -3.23314
C          4.40153       -3.98216       -3.22845
N          4.75310       -4.50575       -4.53896
O          5.28770       -3.71612       -5.33107
O          4.45816       -5.68109       -4.78863
C          4.94883       -4.52143       -2.04324
C          4.56457       -3.89653       -0.84618
C          3.68047       -2.80385       -0.83636
C          5.85142       -5.69849       -2.00924
C          6.81973       -5.95926       -1.10543
C          7.74192       -7.07903       -1.16414
C          8.21306       -7.75056       -0.03285
C          7.93169       -7.52111        1.38891
O          7.44602       -6.47074        1.81713
C          8.27257       -8.61896        2.38197
S          9.30183       -9.01276       -0.46731
C          9.17081       -8.67550       -2.12249
C          8.31962       -7.62396       -2.37935
C          8.11623       -7.12136       -3.71002
C          8.10497       -7.85011       -4.84225
C          7.86541       -7.34926       -6.17183
C          7.56749       -6.02733       -6.44294
S          7.28512       -5.72485       -8.09689
C          7.55554       -7.35998       -8.48410
C          7.85511       -8.14502       -7.38019
C          8.10860       -9.57862       -7.50811
O          8.86819      -10.20683       -6.77300
O          7.38133      -10.13204       -8.54309
C          7.51393      -11.51425       -8.60162
C          6.53028      -12.34192       -8.23264
C          6.65957      -13.77674       -8.24885
C          7.54175      -14.52969       -7.57068
C          7.68876      -15.96952       -8.04497
O          6.93784      -16.61251       -8.75217
C          8.97454      -16.33319       -7.51756
C          9.75981      -17.44219       -7.59646
S         11.22805      -17.23381       -6.75455
C         10.79767      -15.63256       -6.25045
C          9.55766      -15.30578       -6.72882
C          8.63023      -14.20811       -6.59624
C          8.64592      -13.25513       -5.63527
C          9.76625      -13.06339       -4.77632
N         10.68195      -12.91195       -4.07794
C          7.50333      -12.46298       -5.32522
N          6.56493      -11.84502       -5.03132
Cl         9.43979      -18.92389       -8.39340
H         -3.11829        0.67025       -2.52936
H          2.76284       -0.22082       -2.03903
H          3.14471       -2.48752       -4.17547
H          4.93419       -4.25729        0.11291
H          3.41501       -2.35676        0.11983
H          5.69625       -6.41386       -2.81392
H          6.95380       -5.27990       -0.26580
H          7.89033       -9.58473        2.03792
H          7.79639       -8.40466        3.34359
H          9.35424       -8.66993        2.53724
H          9.75356       -9.25233       -2.82858
H          7.93426       -6.05299       -3.77265
H          8.26608       -8.92235       -4.74885
H          7.47979       -5.19846       -5.75657
H          7.48710       -7.67161       -9.51738
H          8.48877      -11.80954       -8.96983
H          5.56907      -11.93967       -7.91520
H          5.97001      -14.26058       -8.94528
H         11.48865      -15.07589       -5.63127
