71

C          9.98739       -1.50482        2.52178
C         11.22068       -1.56902        3.11468
S         12.44303       -1.02572        2.01544
C         11.30036       -0.71574        0.78843
Cl        11.83121       -0.14105       -0.73464
C         10.03275       -1.00543        1.19505
C          8.73796       -0.93859        0.57643
O          8.42884       -0.41831       -0.47557
C          7.84263       -1.62990        1.60234
C          8.62384       -1.80984        2.88588
C          8.16312       -2.08585        4.12679
C          9.02602       -2.16209        5.26007
N          9.73387       -2.22431        6.18016
C          6.78471       -2.26978        4.41050
N          5.65654       -2.42103        4.62975
C          6.62624       -2.10678        1.27470
C          5.95506       -2.02349       -0.03483
C          6.09418       -3.05542       -0.97428
C          5.40354       -3.03504       -2.20405
C          4.56034       -1.93655       -2.39135
N          4.40000       -0.91173       -1.51646
C          5.11463       -0.97052       -0.36953
C          5.60893       -4.07733       -3.23971
C          5.48347       -3.81185       -4.61802
C          5.84498       -4.75250       -5.60168
C          6.26123       -5.99459       -5.12856
N          6.32462       -6.33702       -3.82226
C          6.00307       -5.37734       -2.92365
C          5.70690       -4.45054       -7.04550
S          5.25970       -5.72659       -8.10063
C          4.97174       -4.71177       -9.46306
C          5.01615       -3.38576       -9.02743
C          5.79995       -3.28201       -7.78554
C          6.38109       -2.06919       -7.35251
C          7.37873       -2.00058       -6.33416
N          8.20730       -1.94333       -5.52380
C          6.02788       -0.94577       -8.12774
C          5.13604       -1.01512       -9.23436
C          4.60873       -2.22854       -9.73746
C          3.59828       -2.23356      -10.74783
N          2.75493       -2.19895      -11.54265
C          4.89336       -5.30209      -10.80888
S          5.52630       -4.37848      -12.13241
C          5.25237       -5.57808      -13.33028
C          4.80055       -6.72769      -12.70975
C          4.58306       -6.57805      -11.27474
C          4.15822       -7.65982      -10.47730
C          4.03836       -8.89454      -11.17127
C          3.72686      -10.05392      -10.37676
N          3.49749      -10.97428       -9.70787
C          4.24904       -9.02472      -12.58158
C          4.09703      -10.30729      -13.21978
N          3.97916      -11.32953      -13.75099
C          4.61905       -7.93473      -13.40737
C          5.50122       -5.31058      -14.71515
C          6.39368       -4.41144      -15.15269
H         11.52027       -1.89505        4.10263
H          6.03065       -2.68381        1.97647
H          6.77203       -3.87398       -0.74460
H          3.95428       -1.82921       -3.28756
H          4.97199       -0.12223        0.29387
H          5.12232       -2.83662       -4.93284
H          6.55795       -6.79696       -5.79910
H          6.08132       -5.71366       -1.89329
H          6.44036        0.03019       -7.86087
H          4.86197       -0.07680       -9.72320
H          3.95968       -7.61905       -9.41455
H          4.78950       -8.05778      -14.47203
H          4.93827       -5.87490      -15.45524
H          7.01220       -3.81261      -14.49188
H          6.53346       -4.25026      -16.21736
