90

C          0.24458       -0.50372       -2.73703
C         -0.85183        0.22810       -3.11625
S         -0.75262        1.83315       -2.46958
C          0.75598        1.51918       -1.73916
Cl         1.50775        2.72872       -0.78728
C          1.18329        0.25208       -1.99630
C          2.36868       -0.49625       -1.68127
O          3.47399       -0.05921       -1.42448
C          1.94950       -1.93820       -2.00197
C          0.73319       -1.85038       -2.91376
C          0.26867       -2.75402       -3.79949
C         -0.84180       -2.49252       -4.65319
N         -1.74995       -2.27895       -5.35511
C          0.90243       -4.01649       -3.99119
N          1.43264       -5.03299       -4.12699
C          2.50496       -3.03446       -1.43470
C          3.56615       -3.03552       -0.45745
S          4.73684       -4.31672       -0.43503
C          5.72741       -3.58551        0.81113
C          5.16313       -2.36636        1.16747
C          3.84587       -2.19623        0.60234
N          3.00292       -1.20559        0.99261
C          3.60142       -0.33634        1.83841
N          4.86285       -0.35313        2.34255
C          5.68484       -1.39777        2.03750
C          7.02336       -1.31994        2.51578
N          8.11504       -1.21464        2.89837
C          6.84564       -4.33423        1.29591
N          8.12744       -4.37365        0.73554
C          8.63761       -3.60791       -0.38180
C          9.37053       -2.34801        0.05064
C          8.97510       -5.26803        1.43230
O         10.13630       -5.56242        1.23846
C          8.10452       -5.78635        2.49282
C          6.80741       -5.16868        2.34812
C          5.95835       -5.70829        3.43190
O          4.80290       -5.41303        3.66017
N          6.83595       -6.57116        4.13578
C          6.49505       -7.11805        5.44053
C          5.77270       -8.45294        5.37766
C          8.09896       -6.62115        3.53445
C          9.19667       -7.43646        4.00491
C          9.13046       -8.77780        4.07616
C         10.15219       -9.69756        4.59487
C          9.76766      -10.89796        5.16711
N         10.61659      -11.85592        5.59287
C         11.92668      -11.58639        5.48137
N         12.42806      -10.45940        4.93948
C         11.52264       -9.54387        4.50447
C         12.82239      -12.72519        5.73424
S         14.32388      -12.84707        4.89171
C         14.57486      -14.48688        5.36374
C         13.47941      -14.92588        6.08542
C         12.65656      -13.84243        6.54149
C         11.73381      -14.02976        7.65814
O         10.99601      -13.16385        8.11001
C         11.84723      -15.34865        8.36055
C         11.34719      -15.48500        9.66142
C         11.48369      -16.69889       10.34303
C         12.08085      -17.79643        9.72111
C         12.57953      -17.67317        8.42775
C         12.49440      -16.44154        7.76533
C         13.19403      -16.29559        6.47255
O         13.49001      -17.28037        5.80820
C         15.78446      -15.14115        4.98410
C         16.32953      -16.11917        5.72463
H         -1.71602       -0.03848       -3.71028
H          2.13132       -4.02221       -1.68939
H          2.98968        0.50776        2.14910
H          7.82753       -3.36341       -1.07338
H          9.35224       -4.24221       -0.91960
H          8.67050       -1.62313        0.46195
H          9.85332       -1.86595       -0.80388
H         10.13600       -2.55723        0.80646
H          5.84085       -6.39645        5.94444
H          7.39861       -7.20057        6.05540
H          4.84396       -8.37369        4.80580
H          5.52601       -8.79341        6.38919
H          6.38487       -9.22766        4.91198
H         10.09764       -6.90092        4.29685
H          8.22396       -9.27492        3.73476
H          8.71876      -11.15255        5.29794
H         11.96492       -8.66865        4.03552
H         10.88011      -14.63860       10.16203
H         11.12709      -16.78898       11.36735
H         12.17754      -18.74139       10.25037
H         13.06642      -18.52351        7.95118
H         16.30716      -14.80730        4.09091
H         15.89095      -16.48706        6.64454
H         17.25148      -16.59937        5.41326
