104

C         -0.13618       -0.47548        0.98987
C         -1.03032       -0.16022        1.97751
S         -0.40180       -0.63169        3.52178
C          1.03798       -1.23809        2.83033
Cl         2.22547       -1.93984        3.84708
C          1.04477       -1.09919        1.47589
C          1.95927       -1.45855        0.42524
O          3.08602       -1.90337        0.52041
C          1.15321       -1.13147       -0.83684
C         -0.06360       -0.34195       -0.44570
C         -0.84448        0.42942       -1.23574
C         -1.94044        1.16354       -0.71392
N         -2.83679        1.77024       -0.27860
C         -0.59689        0.61361       -2.62449
N         -0.38564        0.75353       -3.75538
C          1.43885       -1.64600       -2.04740
C          2.57990       -2.49898       -2.37657
C          3.78621       -1.93005       -2.79461
C          4.87319       -2.76883       -3.05624
N          6.11828       -2.15503       -3.48546
O          6.07735       -1.46391       -4.51300
O          7.11885       -2.33144       -2.77761
C          4.76915       -4.15962       -2.93066
C          3.53318       -4.71677       -2.58731
C          2.44666       -3.89071       -2.30349
C          5.86531       -5.07786       -3.20138
C          6.69105       -5.54347       -2.25163
C          7.79301       -6.44638       -2.49533
N          8.65678       -6.91133       -1.49324
C          8.52762       -6.69842       -0.06401
C          7.71170       -7.80922        0.58049
C          9.62044       -7.81192       -2.00569
O         10.48571       -8.44630       -1.43734
C          9.29359       -7.86681       -3.43846
C          8.16381       -6.99469       -3.65989
C          7.82817       -7.07407       -5.09221
O          6.93627       -6.52319       -5.70498
N          8.78186       -7.97485       -5.58984
C          8.76353       -8.31443       -6.99050
C          7.81133       -9.46168       -7.27918
C          9.62429       -8.44701       -4.59408
C         10.66694       -9.42436       -4.81733
C         10.44094      -10.71653       -5.11826
C         11.48662      -11.74500       -5.27518
C         12.17153      -12.14414       -3.99670
C         13.34891      -11.52301       -3.55512
C         13.86880      -11.77507       -2.28113
C         13.22100      -12.64450       -1.41845
C         12.05359      -13.27220       -1.83154
C         11.53550      -13.02268       -3.10492
F         10.38584      -13.61536       -3.46281
F         11.40886      -14.10221       -0.99889
F         13.70939      -12.87556       -0.19118
F         14.98850      -11.15490       -1.88052
F         13.97538      -10.64200       -4.34930
C         11.73621      -12.35337       -6.48287
C         10.99269      -11.91892       -7.70606
C         11.51863      -10.96266       -8.58640
C         10.86041      -10.63395       -9.77591
C          9.68565      -11.28256      -10.12771
C          9.16119      -12.24618       -9.28244
C          9.78914      -12.53201       -8.06836
F          9.27704      -13.49831       -7.29124
F          8.09418      -12.96504       -9.65830
F          9.06269      -10.98501      -11.27637
F         11.37114       -9.69740      -10.58704
F         12.68078      -10.35748       -8.29961
C         12.79018      -13.37963       -6.62693
C         12.71597      -14.67932       -6.99264
C         13.87785      -15.54898       -6.51796
O         15.04439      -15.23995       -6.38254
C         13.20295      -16.77830       -6.18318
C         13.56401      -17.95473       -5.60278
S         12.23416      -19.01470       -5.44305
C         11.15142      -17.89951       -6.20618
C         11.83128      -16.76705       -6.55833
C         11.57553      -15.57747       -7.32805
C         10.80254      -15.59081       -8.43913
C          9.66810      -16.44673       -8.55809
N          8.71917      -17.11113       -8.61376
C         11.15789      -14.83984       -9.59362
N         11.45737      -14.23327      -10.53585
Cl        15.10993      -18.44392       -5.05509
H         -2.00683        0.30504        1.93228
H          0.78760       -1.50877       -2.90454
H          3.88468       -0.85359       -2.91150
H          3.41006       -5.79821       -2.54478
H          1.49904       -4.34855       -2.02846
H          5.93953       -5.33114       -4.24689
H          6.53694       -5.19957       -1.23183
H          8.08734       -5.71872        0.14372
H          9.53164       -6.69437        0.37698
H          6.71410       -7.87555        0.13409
H          7.59977       -7.63494        1.65436
H          8.20041       -8.77994        0.44228
H          9.77911       -8.52263       -7.33472
H          8.40978       -7.43693       -7.54795
H          8.11779      -10.37321       -6.76440
H          7.77996       -9.66479       -8.35185
H          6.79325       -9.23295       -6.94617
H         11.68181       -9.04768       -4.69631
H          9.42175      -11.09813       -5.15095
H         13.76108      -13.01595       -6.27012
H         10.11493      -18.17485       -6.35760
