106

C          0.73567        0.81335       -0.21189
C         -0.29071        1.44071       -0.86072
S         -1.33837        0.26425       -1.58143
C         -0.39578       -1.03984       -1.00893
Cl        -0.81708       -2.64441       -1.42913
C          0.66664       -0.60255       -0.28019
C          1.76530       -1.23763        0.39350
O          1.88872       -2.38326        0.77974
C          2.70137       -0.05811        0.63222
C          1.91449        1.20327        0.51753
C          2.18100        2.40170        1.08827
C          1.29837        3.50687        0.96323
N          0.57432        4.40539        0.85877
C          3.33565        2.60481        1.90992
N          4.27094        2.73885        2.55840
C          4.03544       -0.19896        0.68490
C          4.75314       -1.44097        0.51885
C          5.66425       -2.00486        1.33588
C          6.03641       -1.34384        2.63575
C          5.15922       -1.78968        3.80415
C          6.23904       -3.27292        0.79864
C          7.27711       -4.08285        1.56129
C          7.21977       -4.18012        3.08436
C          5.76523       -3.58951       -0.44344
S          4.81755       -2.23437       -1.02161
O          3.49918       -2.65492       -1.44673
O          5.61331       -1.36895       -1.87151
C          5.91439       -4.77931       -1.26762
N          6.19790       -4.80135       -2.65749
C          6.38943       -3.71036       -3.58573
C          5.10334       -3.31685       -4.30485
C          6.22330       -6.11523       -3.17812
O          6.40203       -6.50491       -4.31399
C          5.97690       -6.92929       -1.99726
C          5.74923       -6.05927       -0.87205
C          5.43274       -6.95551        0.27045
O          5.06030       -6.62371        1.37738
N          5.67501       -8.24723       -0.24957
C          5.55256       -9.45411        0.54882
C          4.18629      -10.09847        0.40569
C          5.92844       -8.20175       -1.61260
C          6.16076       -9.34921       -2.43343
C          5.45216       -9.64568       -3.53707
C          5.87934      -10.69572       -4.42702
C          7.01553      -10.72689       -5.15843
C          7.98169       -9.56492       -5.24800
C          7.68111       -8.61519       -6.39765
C          7.27376      -12.05101       -5.75817
C          8.52036      -12.28114       -6.57716
C          8.33282      -11.96273       -8.05297
C          6.36687      -13.00121       -5.41616
S          5.07291      -12.23054       -4.50205
O          5.02234      -12.80062       -3.16949
O          3.88246      -12.15390       -5.32638
C          6.31942      -14.38127       -5.87600
C          5.77066      -15.48459       -5.33195
C          5.58474      -16.68689       -6.26132
O          6.17072      -16.93045       -7.29832
C          4.50660      -17.39956       -5.62866
C          3.83780      -18.55993       -5.87454
S          2.62764      -18.85330       -4.70645
C          3.03498      -17.42737       -3.81513
C          4.08114      -16.78540       -4.41986
C          5.00331      -15.73021       -4.07854
C          5.36921      -15.50149       -2.79491
C          4.43024      -15.59396       -1.72578
N          3.64185      -15.64983       -0.87553
C          6.73440      -15.35185       -2.42609
N          7.84584      -15.37398       -2.08945
Cl         4.10284      -19.70273       -7.12146
H         -0.50434        2.49384       -0.99126
H          4.69528        0.66461        0.73323
H          5.92759       -0.25515        2.55332
H          7.10762       -1.45396        2.82655
H          4.11162       -1.52380        3.63381
H          5.49139       -1.30168        4.72556
H          5.17609       -2.86750        3.97858
H          8.26400       -3.68890        1.28755
H          7.26934       -5.11722        1.20966
H          7.29358       -3.22159        3.59073
H          8.08294       -4.73109        3.46781
H          6.30883       -4.68582        3.41377
H          7.09261       -4.04956       -4.35707
H          6.89017       -2.87733       -3.09139
H          4.58368       -4.19131       -4.70925
H          5.31650       -2.62550       -5.12421
H          4.39284       -2.81751       -3.65115
H          5.71347       -9.18830        1.60024
H          6.34706      -10.15929        0.27419
H          3.39928       -9.40112        0.70850
H          4.11812      -10.99180        1.03368
H          3.99187      -10.39492       -0.62954
H          7.02621       -9.95413       -2.16375
H          4.56785       -9.08241       -3.82831
H          9.01951       -9.90281       -5.30478
H          7.95991       -8.97854       -4.32390
H          7.91919       -9.06019       -7.36351
H          8.29063       -7.71077       -6.30135
H          6.62850       -8.31437       -6.41219
H          8.85504      -13.31943       -6.47478
H          9.35660      -11.69335       -6.18753
H          7.60298      -12.63358       -8.51498
H          9.28461      -12.07414       -8.58211
H          7.98641      -10.94096       -8.21489
H          6.73348      -14.48974       -6.88445
H          2.50769      -17.20298       -2.89687
