88

C          2.76363        2.34932       -3.58164
C          2.54099        3.51944       -4.25875
S          3.08428        3.38274       -5.89696
C          3.61289        1.78037       -5.65847
Cl         4.31307        0.92085       -6.96421
C          3.39454        1.36349       -4.37941
C          3.65668        0.14585       -3.66696
O          4.18066       -0.86537       -4.08853
C          3.12492        0.45174       -2.25893
C          2.51981        1.83772       -2.24890
C          1.84376        2.46735       -1.26203
C          1.31264        3.78541       -1.41873
N          0.88753        4.85082       -1.54285
C          1.58233        1.87745        0.00674
N          1.36671        1.39419        1.03923
C          3.26830       -0.42756       -1.24734
C          3.89742       -1.75035       -1.34622
C          3.13379       -2.88079       -1.63956
C          3.77177       -4.12354       -1.80806
N          2.92052       -5.23564       -2.19740
O          1.98357       -5.51781       -1.43736
O          3.15609       -5.78878       -3.27951
C          5.15767       -4.28684       -1.62831
C          5.89390       -3.12916       -1.32077
C          5.27695       -1.88126       -1.17910
C          5.87388       -5.56783       -1.78682
C          6.98861       -5.89188       -1.11109
C          7.69155       -7.12448       -1.30719
N          7.94247       -8.03640       -0.28320
C          7.47265       -7.92778        1.08438
C          6.09292       -8.53928        1.27451
C          8.62466       -9.17456       -0.76087
O          8.97668      -10.17694       -0.17444
C          8.80620       -8.86753       -2.19191
C          8.21185       -7.58583       -2.44647
C          8.39192       -7.27175       -3.87195
O          8.06019       -6.25689       -4.44816
N          9.03851       -8.42747       -4.36140
C          9.39308       -8.56658       -5.75949
C         10.79601       -8.06946       -6.06744
C          9.29656       -9.34090       -3.33859
C          9.96782      -10.59119       -3.54110
C         11.07137      -10.93049       -2.85715
C         11.78166      -12.19516       -3.02346
C         13.15980      -12.24909       -2.97158
N         13.87345      -13.39033       -3.04333
C         13.16436      -14.52570       -3.14181
N         11.82823      -14.60540       -3.24594
C         11.16736      -13.42673       -3.15976
C         13.94156      -15.75271       -3.19254
C         13.62454      -17.01537       -2.86700
C         14.61835      -18.04794       -3.38913
O         15.73363      -17.86667       -3.83767
C         13.88196      -19.27255       -3.28059
C         14.14782      -20.57041       -3.59401
S         12.84197      -21.59065       -3.19885
C         11.90362      -20.26909       -2.58481
C         12.59783      -19.09320       -2.70392
C         12.42395      -17.71020       -2.30832
C         11.49185      -17.25523       -1.43776
C         10.37691      -18.05050       -1.04246
N          9.46682      -18.70173       -0.73468
C         11.60667      -16.01345       -0.74831
N         11.69061      -15.04493       -0.11430
Cl        15.56946      -21.23543       -4.27957
H          2.09831        4.45396       -3.94192
H          2.93904       -0.22571       -0.23537
H          2.05555       -2.80003       -1.76279
H          6.97672       -3.16905       -1.21625
H          5.89735       -1.01486       -0.96073
H          5.46695       -6.27423       -2.50917
H          7.42441       -5.22462       -0.37243
H          7.46902       -6.87580        1.38737
H          8.18381       -8.44917        1.73494
H          5.36854       -8.13082        0.56247
H          5.72729       -8.33905        2.28678
H          6.12402       -9.62482        1.13441
H          8.67698       -7.98235       -6.34941
H          9.28004       -9.61194       -6.06500
H         10.97765       -7.08116       -5.63316
H         10.94167       -7.99934       -7.15072
H         11.55044       -8.75642       -5.67146
H          9.53815      -11.25182       -4.28931
H         11.50192      -10.24527       -2.12745
H         13.75882      -11.34721       -2.86732
H         10.08443      -13.51588       -3.17497
H         14.92732      -15.55534       -3.61817
H         10.92742      -20.48074       -2.17057
