93

C          1.94079        1.88105       -3.23762
C          1.94183        3.17635       -3.68052
S          2.79404        3.29115       -5.18521
C          3.14153        1.62127       -5.19995
Cl         4.07297        0.95900       -6.47552
C          2.63076        0.99391       -4.10485
C          2.66498       -0.35388       -3.60928
O          3.04452       -1.36072       -4.17157
C          2.07984       -0.19193       -2.20659
C          1.43822        1.15776       -2.09575
C          0.51435        1.57042       -1.19855
C         -0.04198        2.87965       -1.24057
N         -0.48396        3.94990       -1.27942
C         -0.00532        0.71762       -0.18563
N         -0.41578        0.01018        0.64076
C          2.33868       -1.06366       -1.21653
C          3.15199       -2.27027       -1.35397
C          2.55370       -3.50904       -1.57309
C          3.36172       -4.65318       -1.67164
N          2.67118       -5.92153       -1.81907
O          1.87912       -6.23035       -0.91728
O          2.89026       -6.58476       -2.84047
C          4.76153       -4.59388       -1.55826
C          5.33259       -3.32306       -1.36938
C          4.54138       -2.17938       -1.24882
C          5.65444       -5.75880       -1.67785
C          6.81551       -5.86828       -1.01384
C          7.73769       -6.94292       -1.21976
N          8.18207       -7.78158       -0.20249
C          7.67583       -7.80790        1.15594
C          6.48772       -8.74652        1.29988
C          9.07214       -8.76157       -0.69440
O          9.60906       -9.69029       -0.12396
C          9.17553       -8.41877       -2.12339
C          8.32142       -7.29202       -2.36583
C          8.39536       -6.95736       -3.79602
O          7.83687       -6.04528       -4.36484
N          9.25641       -7.95850       -4.29980
C          9.58437       -8.03428       -5.70948
C          8.36450       -8.32658       -6.57453
C          9.73218       -8.78778       -3.27805
C         10.60564       -9.90627       -3.48727
C         11.78399      -10.09208       -2.86493
C         12.50929      -11.29874       -3.09330
O         11.85369      -12.47136       -3.39576
C         12.74421      -13.49249       -3.57142
C         14.00836      -12.96130       -3.43100
C         13.87468      -11.57977       -3.09084
C         14.96190      -10.65031       -2.84496
O         14.85743       -9.61801       -2.19564
O         16.10840      -11.06425       -3.46334
C         17.21229      -10.16821       -3.34703
C         12.35837      -14.81481       -3.89848
C         11.19437      -15.36140       -3.51729
C         10.73510      -16.54120       -4.35774
O         11.40320      -17.26822       -5.06619
C          9.31062      -16.50289       -4.17250
C          8.25753      -17.17267       -4.71575
S          6.77009      -16.61149       -4.09753
C          7.54795      -15.45105       -3.07104
C          8.90611      -15.52473       -3.22278
C         10.07019      -14.89643       -2.64738
C         10.14440      -14.24641       -1.46140
C          8.97783      -13.91661       -0.71495
N          8.01023      -13.67521       -0.12132
C         11.39131      -13.99203       -0.81260
N         12.40006      -13.84643       -0.26073
Cl         8.27538      -18.42121       -5.88792
H          1.52517        4.07453       -3.24465
H          2.03521       -0.88935       -0.18889
H          1.47227       -3.59062       -1.66217
H          6.41312       -3.19759       -1.32034
H          5.02975       -1.22164       -1.08115
H          5.35518       -6.53991       -2.37540
H          7.13928       -5.11454       -0.30032
H          7.40211       -6.79535        1.47159
H          8.48289       -8.14740        1.81392
H          5.63830       -8.40442        0.69931
H          6.16772       -8.79732        2.34504
H          6.74221       -9.75916        0.96995
H         10.34462       -8.80225       -5.88244
H         10.01215       -7.06989       -6.00553
H          7.89381       -9.27148       -6.28500
H          8.65196       -8.39078       -7.62843
H          7.60853       -7.53932       -6.48686
H         10.23620      -10.64490       -4.19576
H         12.19254       -9.35678       -2.17577
H         14.93645      -13.50973       -3.52902
H         18.04806      -10.58993       -3.91361
H         17.51490      -10.07197       -2.30094
H         16.96483       -9.19266       -3.77692
H         13.00874      -15.34606       -4.59200
H          6.93982      -14.81613       -2.44022
