94

C          4.02058       -1.10618       -3.77144
C          3.94661       -1.15015       -5.14022
S          5.50545       -1.47478       -5.82303
C          6.23388       -1.54980       -4.28561
Cl         7.91835       -1.83982       -4.15893
C          5.32753       -1.34304       -3.29056
C          5.42890       -1.28802       -1.86056
O          6.43458       -1.47728       -1.21123
C          4.00368       -0.89531       -1.43005
C          3.11227       -0.88536       -2.66848
C          1.76487       -0.77570       -2.75557
C          1.07911       -0.81906       -4.01042
N          0.52092       -0.85127       -5.02839
C          0.91187       -0.64672       -1.62474
N          0.21318       -0.54311       -0.70590
C          3.68879       -0.49403       -0.18167
C          4.56671       -0.48846        0.94136
O          5.57204       -1.42166        1.18467
C          4.58007        0.33496        2.03935
C          3.89608        1.44342        2.63091
O          2.94068        2.04720        2.18198
N          4.56982        1.66427        3.81800
C          5.63570        0.81721        4.02704
O          6.41353        0.80590        4.96386
C          5.62188       -0.03534        2.88251
C          6.25783       -1.12238        2.35747
C          7.33423       -1.85700        2.90139
C          7.53793       -3.13997        2.57536
C          8.48318       -3.94795        3.28663
N          9.50491       -4.67390        2.68422
C          9.85508       -4.66396        1.27854
C         10.91203       -3.61835        0.95640
C         10.27701       -5.36413        3.63800
O         11.25362       -6.06553        3.47534
C          9.62386       -5.01050        4.91571
C          8.51924       -4.14697        4.60809
C          7.84366       -3.79936        5.86904
O          6.85780       -3.10536        6.00984
N          8.62555       -4.46978        6.83246
C          8.32862       -4.38179        8.24939
C          7.39188       -5.48347        8.72087
C          9.67870       -5.17623        6.24045
C         10.61808       -5.96492        6.99055
C         11.87862       -6.19228        6.59387
C         12.75282       -6.99752        7.35682
O         12.66044       -7.18246        8.73191
C         13.83959       -7.72339        6.95810
C         14.57535       -8.09277        5.78962
O         14.36225       -7.78764        4.63193
N         15.59781       -8.88176        6.27496
C         15.59725       -9.02205        7.64706
O         16.41662       -9.61171        8.33377
C         14.44542       -8.28889        8.07771
C         13.73050       -7.94302        9.19671
C         13.90973       -8.21995       10.57694
C         15.13380       -8.41292       11.08688
C         15.38567       -8.71118       12.47711
C         16.58196       -8.88813       13.06268
C         16.56037       -9.61191       14.40274
O         15.62829       -9.75358       15.16990
C         17.89205      -10.14709       14.47831
C         18.55065      -10.94981       15.35839
S         20.15433      -11.24720       14.85972
C         19.97533      -10.26539       13.44268
C         18.71152       -9.74142       13.39006
C         17.98555       -8.80962       12.56134
C         18.52439       -7.90025       11.71613
C         19.88627       -7.96368       11.30393
N         20.99084       -8.02704       10.95578
C         17.80782       -6.75285       11.27777
N         17.23898       -5.79555       10.94282
Cl        17.97292      -11.63501       16.81768
H          3.11236       -1.01496       -5.81506
H          2.70912       -0.09296        0.04328
H          4.31202        2.38030        4.47680
H          7.93425       -1.37568        3.67115
H          6.93391       -3.63466        1.81878
H          8.95810       -4.50502        0.67242
H         10.25148       -5.65339        1.02165
H         10.57317       -2.61374        1.22842
H         11.13893       -3.62639       -0.11440
H         11.84199       -3.81581        1.50056
H          7.85104       -3.41360        8.44169
H          9.26195       -4.39612        8.82166
H          6.41909       -5.41302        8.22317
H          7.22685       -5.40242        9.80032
H          7.80259       -6.47632        8.51291
H         10.25975       -6.40479        7.91838
H         12.27140       -5.78213        5.66806
H         16.29915       -9.28344        5.67689
H         13.02223       -8.22782       11.20290
H         15.98697       -8.37760       10.42098
H         14.48717       -8.90504       13.06869
H         20.82128      -10.14470       12.77883
