90

C          5.06736        2.14024       -4.91028
C          4.78799        3.33224       -5.52554
S          5.10797        4.65303       -4.45221
C          5.61150        3.60602       -3.20452
Cl         6.09194        4.26277       -1.69696
C          5.54426        2.29915       -3.58526
C          5.83129        1.04847       -2.93647
O          6.34154        0.87698       -1.84799
C          5.33923        0.01861       -3.96388
C          5.01520        0.73846       -5.25520
C          4.83152        0.21464       -6.49272
C          4.57381        1.04285       -7.63316
N          4.36572        1.71410       -8.55315
C          4.90953       -1.17816       -6.77228
N          4.97735       -2.31502       -6.99137
C          5.12409       -1.27425       -3.65023
C          5.43701       -1.85274       -2.38809
S          6.98584       -2.53058       -2.12109
C          6.62522       -2.97763       -0.49206
C          5.32771       -2.60740       -0.16133
C          4.63161       -2.03653       -1.28282
C          4.74776       -2.76071        1.16384
O          3.54312       -2.87147        1.36849
C          7.65780       -3.63475        0.24385
C          7.40928       -4.63823        1.10238
C          8.44916       -5.36779        1.77373
N          8.51899       -5.55797        3.15527
C          7.57737       -5.07975        4.14500
C          6.51669       -6.12315        4.45732
C          9.60919       -6.38260        3.51390
O          9.96291       -6.78414        4.60342
C         10.22287       -6.68632        2.21235
C          9.45731       -6.02403        1.19468
C         10.04081       -6.36318       -0.11244
O          9.65807       -6.00309       -1.20572
N         11.11463       -7.20321        0.24067
C         11.98769       -7.78554       -0.75841
C         13.10180       -6.83010       -1.15625
C         11.19545       -7.37768        1.62221
C         12.12123       -8.26013        2.25925
C         13.45159       -8.10568        2.21943
C         14.32918       -9.07037        2.77870
S         16.01369       -8.80550        2.70984
C         16.39413      -10.24364        3.58466
C         15.22820      -10.94187        3.89216
C         14.06247      -10.27615        3.39112
C         15.13979      -12.19395        4.63570
O         16.09352      -12.78439        5.13200
C         17.74942      -10.54013        3.93730
C         18.81666      -10.10648        3.24345
C         20.17400      -10.45566        3.59817
C         20.80703      -10.19934        4.75411
C         22.04470      -11.03230        5.04664
O         22.74992      -11.63898        4.26464
C         22.10245      -10.98443        6.48299
C         22.91417      -11.53268        7.42775
S         22.42837      -11.09849        9.00443
C         21.12075      -10.12626        8.41600
C         21.09333      -10.15673        7.04818
C         20.37226       -9.49411        5.99079
C         19.69655       -8.32690        6.09480
C         19.29875       -7.80056        7.35683
N         18.95999       -7.39935        8.39175
C         19.49216       -7.47291        4.97366
N         19.40248       -6.71822        4.09556
Cl        24.29072      -12.52668        7.20645
H          4.41796        3.55229       -6.51797
H          4.67792       -1.96887       -4.35187
H          3.59597       -1.71703       -1.23496
H          5.46127       -2.76100        2.00521
H          8.68614       -3.33924        0.03604
H          6.40077       -4.99998        1.28320
H          7.11866       -4.14604        3.80419
H          8.13181       -4.85535        5.06432
H          5.95375       -6.39399        3.55858
H          5.81362       -5.74283        5.20426
H          6.97113       -7.03806        4.85294
H         11.38586       -8.01298       -1.64568
H         12.39547       -8.73578       -0.39820
H         12.69300       -5.90233       -1.56853
H         13.74820       -7.28963       -1.90909
H         13.72421       -6.55400       -0.30176
H         11.65704       -9.09604        2.77514
H         13.88603       -7.23151        1.74191
H         13.05882      -10.66493        3.51838
H         14.11558      -12.59390        4.74356
H         17.90082      -11.18104        4.80373
H         18.71488       -9.53931        2.31951
H         20.67356      -11.06142        2.83825
H         20.49911       -9.59566        9.12507
