94

C         -0.90782       -4.10629        0.22754
C         -2.09358       -4.77810        0.36639
S         -2.15225       -5.57823        1.90252
C         -0.59925       -5.02069        2.33152
Cl         0.07325       -5.46471        3.84278
C         -0.05016       -4.25874        1.34525
C          1.20698       -3.58642        1.18068
O          2.09336       -3.44116        1.99671
C          1.12758       -3.07834       -0.26246
C         -0.27891       -3.27144       -0.76886
C         -0.87259       -2.70136       -1.84385
C         -2.23257       -2.93912       -2.16962
N         -3.34652       -3.13795       -2.43529
C         -0.19240       -1.78055       -2.69231
N          0.38105       -1.03294       -3.36601
C          2.21938       -2.69383       -0.95110
C          3.52435       -2.66461       -0.38079
S          4.54218       -4.04432       -0.56413
C          5.80528       -3.39026        0.42054
C          5.49418       -2.09328        0.77743
C          4.18967       -1.67724        0.31663
C          3.63051       -0.42136        0.58258
C          4.49862        0.41991        1.32786
C          4.00421        1.72380        1.65401
N          3.57659        2.77900        1.90161
C          5.80903        0.01440        1.76646
C          6.65702        0.94524        2.46272
N          7.37608        1.67774        3.00215
C          6.34653       -1.27874        1.53249
C          6.90993       -4.21636        0.73078
N          8.09629       -4.31506        0.00204
C          8.46140       -3.53575       -1.16413
C          8.04012       -4.18381       -2.47244
C          8.96436       -5.27135        0.56857
O         10.07346       -5.62899        0.22529
C          8.20210       -5.75044        1.73362
C          6.95677       -5.03654        1.78405
C          6.22487       -5.49886        2.97886
O          5.17036       -5.08081        3.40442
N          7.07768       -6.49498        3.50547
C          6.77688       -7.18594        4.74824
C          7.34613       -6.48638        5.97225
C          8.24258       -6.61003        2.75114
C          9.31520       -7.49764        3.05769
C          9.19303       -8.83426        3.11095
C         10.29952       -9.67176        3.43301
S         11.50119       -9.11972        4.53384
C         12.50278      -10.51203        4.36827
C         11.85086      -11.44505        3.58403
C         10.58786      -10.96922        3.05820
C          9.75031      -11.73063        2.23238
C         10.27516      -13.01957        1.94895
C          9.48445      -13.86110        1.09862
N          8.81836      -14.52190        0.40856
C         11.53496      -13.48996        2.46503
C         12.00730      -14.79472        2.10494
N         12.41017      -15.84854        1.82350
C         12.36908      -12.71819        3.31780
C         13.71223      -10.58498        5.12749
C         14.59477       -9.57796        5.26976
C         15.47581       -9.63401        6.51014
O         15.80644      -10.61064        7.15304
C         15.70997       -8.23669        6.77163
C         16.33767       -7.52859        7.75024
S         16.18863       -5.84512        7.50646
C         15.29765       -6.05869        6.03698
C         15.16404       -7.39281        5.76636
C         14.65169       -8.20286        4.69462
C         14.50170       -7.83102        3.40229
C         14.52750       -6.46399        3.00888
N         14.51833       -5.34040        2.71738
C         14.40829       -8.78695        2.35213
N         14.39053       -9.56833        1.49233
Cl        17.20669       -8.11464        9.10371
H         -2.93872       -4.87496       -0.30193
H          2.18158       -2.44216       -2.00493
H          2.64020       -0.10651        0.27305
H          7.31956       -1.57892        1.90580
H          9.55200       -3.41843       -1.16575
H          8.03215       -2.53265       -1.07929
H          8.47826       -5.18043       -2.58801
H          8.36379       -3.56876       -3.31877
H          6.95369       -4.28761       -2.53061
H          7.14094       -8.21560        4.70629
H          5.68688       -7.24495        4.84863
H          8.44064       -6.46895        5.94837
H          7.03772       -7.01390        6.88102
H          6.99311       -5.45292        6.04052
H         10.26983       -7.00140        3.21443
H          8.23713       -9.30449        2.89224
H          8.80159      -11.39267        1.82966
H         13.31528      -13.08963        3.69541
H         13.82183      -11.47975        5.74201
H         14.96505       -5.18867        5.48532
