98

C          1.13678       -1.09772       -4.36250
C          0.49433       -1.25959       -5.56095
S          1.65207       -1.42778       -6.84000
C          2.96572       -1.26126       -5.76686
Cl         4.56804       -1.41134       -6.35147
C          2.54777       -1.06145       -4.48669
C          3.21876       -0.87310       -3.23126
O          4.38154       -0.58253       -3.03452
C          2.08109       -1.03415       -2.22814
C          0.76141       -0.96284       -2.97455
C         -0.48322       -0.75179       -2.49552
C         -1.62409       -0.69571       -3.34776
N         -2.56812       -0.64360       -4.01884
C         -0.73013       -0.53511       -1.11291
N         -0.91839       -0.35905        0.02398
C          2.31076       -1.40070       -0.95065
C          3.60823       -1.67459       -0.41168
S          4.23127       -3.27651       -0.49330
C          5.64537       -2.90052        0.41696
C          5.64038       -1.55967        0.78300
C          4.48026       -0.85323        0.28232
C          4.29859        0.60594        0.57110
C          4.87605        0.94867        1.93995
F          4.74697        2.29513        2.12809
C          6.35595        0.57562        2.01942
F          6.78338        0.77755        3.30411
C          6.67469       -0.87988        1.64598
C          6.58479       -3.93298        0.69033
N          7.74735       -4.18581       -0.05011
C          8.31013       -3.37849       -1.11041
C          7.80130       -3.72308       -2.49709
C          8.45184       -5.29542        0.45736
O          9.47753       -5.82283        0.08026
C          7.65873       -5.66692        1.63161
C          6.51220       -4.79971        1.71113
C          5.75509       -5.21186        2.91402
O          4.73210       -4.71605        3.34057
N          6.54020       -6.27137        3.44618
C          6.21022       -6.91995        4.70395
C          5.30054       -8.12769        4.53219
C          7.66787       -6.51419        2.65894
C          8.71129       -7.47083        2.92491
C          8.51295       -8.79266        3.01434
C          9.58259       -9.70973        3.18712
S          9.94689      -10.28473        4.75082
C         11.06781      -11.46264        4.17424
C         11.18414      -11.38188        2.79329
C         10.35718      -10.34081        2.23028
C         10.28870      -10.09392        0.74956
C         11.47181      -10.70197        0.00020
F         11.17019      -10.68751       -1.33213
C         11.72632      -12.14488        0.43158
F         12.80091      -12.63142       -0.25757
C         12.03954      -12.26603        1.92507
C         11.58767      -12.44972        5.06966
C         12.06772      -12.20649        6.30081
C         11.90837      -13.34648        7.29720
O         11.84517      -14.53973        7.07698
C         11.73011      -12.62955        8.53436
C         11.39436      -12.97411        9.80770
S         11.26960      -11.60425       10.81922
C         11.69131      -10.52015        9.53505
C         11.91949      -11.22748        8.38665
C         12.33634      -10.94543        7.04014
C         13.03562       -9.87523        6.60189
C         13.22163       -8.71980        7.41108
N         13.34367       -7.77781        8.07749
C         13.72932       -9.89944        5.35754
N         14.34593       -9.94806        4.37580
Cl        11.08573      -14.53202       10.44756
H         -0.55923       -1.31494       -5.80520
H          1.49549       -1.61692       -0.26810
H          3.24508        0.90304        0.53274
H          4.81214        1.19374       -0.20145
H          4.31527        0.45761        2.74353
H          6.93647        1.26282        1.39376
H          6.80619       -1.46203        2.56652
H          7.64225       -0.89920        1.12925
H          9.39613       -3.53847       -1.10349
H          8.15162       -2.31999       -0.88650
H          7.89763       -4.79269       -2.70844
H          8.38339       -3.17598       -3.24727
H          6.75195       -3.44214       -2.61691
H          5.69252       -6.19166        5.33988
H          7.13101       -7.19972        5.22761
H          4.34795       -7.84415        4.07544
H          5.09543       -8.58980        5.50322
H          5.74611       -8.89266        3.89536
H          9.72479       -7.07019        2.94968
H          7.52460       -9.22159        2.90852
H         10.24353       -9.01986        0.53519
H          9.35575      -10.52422        0.36174
H         12.37805      -10.10133        0.13519
H         10.86682      -12.76897        0.16022
H         13.09414      -12.01830        2.09534
H         11.91843      -13.31630        2.21805
H         11.40530      -13.48320        4.77012
H         11.73865       -9.45686        9.73089
