78

C          9.03438       -2.20757       -5.84492
C          9.74602       -2.09118       -7.01135
S         11.44679       -2.09118       -6.68342
C         11.19244       -2.25696       -5.00619
Cl        12.53989       -2.34469       -3.95250
C          9.86491       -2.31525       -4.70134
C          9.12446       -2.47424       -3.48226
O          9.55299       -2.54932       -2.34892
C          7.67313       -2.55612       -3.96949
C          7.64038       -2.25614       -5.45470
C          6.57634       -1.97860       -6.25102
C          6.72466       -1.67876       -7.62896
N          6.84969       -1.43434       -8.76326
C          5.24073       -1.95460       -5.76677
N          4.14716       -1.95833       -5.37544
C          6.67396       -2.95852       -3.15191
C          6.86264       -3.26700       -1.76889
S          7.21815       -4.89533       -1.26804
C          7.37657       -4.44111        0.37343
O          7.58886       -5.22197        1.25581
C          7.17045       -3.10353        0.55444
C          6.80468       -2.47492       -0.63747
C          6.48084       -1.16616       -0.45089
O          6.06290       -0.44176       -1.31002
S          6.70691       -0.68554        1.17238
C          7.28695       -2.26401        1.64987
C          7.86801       -2.45230        2.93438
N          7.22593       -2.80118        4.12780
C          5.80950       -2.92715        4.37946
C          5.28706       -4.33683        4.17432
C          8.14832       -2.94527        5.18964
O          7.96575       -3.22536        6.35634
C          9.43052       -2.63731        4.55002
C          9.17738       -2.29653        3.17515
C         10.47331       -1.91122        2.58067
O         10.66163       -1.47712        1.46344
N         11.39034       -2.14030        3.63245
C         12.82775       -2.14103        3.41483
C         13.33398       -3.51711        3.00095
C         10.73565       -2.53932        4.79985
C         11.36710       -2.73008        6.07852
C         12.10310       -1.76788        6.65324
C         12.64368       -1.86266        7.95966
C         13.07694       -1.74617        9.07121
C         13.54406       -1.33808       10.46747
C         13.80064       -0.81389       11.51299
C         14.08516       -0.08680       12.70076
C         13.18406        0.28069       13.62349
C         13.77010        0.76929       14.93969
O         14.89276        1.17979       15.15912
C         12.68421        0.55656       15.85368
C         12.52849        0.69458       17.19879
S         10.96541        0.23431       17.70000
C         10.47651       -0.14146       16.08033
C         11.50568        0.09478       15.20802
C         11.71456        0.06261       13.77681
C         10.74545        0.06678       12.83130
C          9.37837       -0.17001       13.15597
N          8.26974       -0.37499       13.43163
C         10.98073        0.44604       11.47999
N         11.12098        0.81849       10.38996
Cl        13.66616        1.24173       18.35593
H          9.42031       -2.00546       -8.03910
H          5.65864       -3.09074       -3.50898
H          5.25877       -2.20238        3.77392
H          5.63307       -2.65870        5.42999
H          5.45943       -4.68105        3.15169
H          4.21051       -4.36787        4.37264
H          5.77353       -5.04200        4.85718
H         13.35509       -1.80696        4.31167
H         13.06118       -1.42368        2.62053
H         13.06295       -4.28214        3.73654
H         14.42440       -3.51080        2.90453
H         12.90837       -3.81593        2.03749
H         11.13141       -3.64257        6.62111
H         12.26257       -0.82023        6.13996
H         15.14269        0.12263       12.87259
H          9.46770       -0.49283       15.90995
