84

C          2.23852        2.71350       -1.97729
C          2.01048        4.03439       -2.25869
S          3.19279        4.61956       -3.38148
C          3.97818        3.10749       -3.45123
Cl         5.36609        2.92046       -4.43724
C          3.37247        2.18841       -2.64869
C          3.63548        0.81530       -2.31492
O          4.48528        0.07677       -2.77012
C          2.58902        0.53428       -1.23531
C          1.62929        1.68876       -1.16394
C          0.41180        1.73162       -0.57428
C         -0.40609        2.89449       -0.62592
N         -1.06433        3.84459       -0.65606
C         -0.17135        0.61755        0.09102
N         -0.64296       -0.29519        0.62987
C          2.67507       -0.52396       -0.41016
C          3.67346       -1.59209       -0.46408
C          4.83896       -1.50811        0.29702
C          5.74027       -2.58388        0.29166
N          6.91309       -2.45448        1.13830
O          6.71009       -2.29068        2.34943
O          8.02254       -2.49765        0.59312
C          5.51427       -3.75053       -0.46037
C          4.32611       -3.80573       -1.20803
C          3.42250       -2.73886       -1.21923
C          6.39025       -4.93450       -0.41080
C          6.56191       -5.78371       -1.43802
C          7.39415       -6.98252       -1.35534
C          7.61801       -7.68798       -0.18600
N          8.36596       -8.80165       -0.10129
C          8.87725       -9.24018       -1.26081
N          8.71363       -8.66262       -2.46509
C          7.96901       -7.54184       -2.48122
C          9.71026      -10.42753       -1.17912
S          9.82185      -11.48042       -2.51609
C         10.93900      -12.49266       -1.71313
C         11.20327      -12.07154       -0.42240
C         10.45783      -10.89125       -0.11254
C         12.11003      -12.76155        0.48160
O         12.10006      -12.60752        1.69980
C         11.38747      -13.64465       -2.39175
C         12.51605      -13.61637       -3.11117
C         13.06662      -14.74389       -3.81495
N         14.24526      -14.66269       -4.56394
C         15.08437      -13.49468       -4.75910
C         14.66601      -12.67497       -5.96918
C         14.56667      -15.89673       -5.16669
O         15.50988      -16.17598       -5.87724
C         13.47852      -16.78102       -4.71131
C         12.60611      -16.00440       -3.86886
C         11.53974      -16.90686       -3.39075
O         10.61205      -16.65899       -2.64968
N         11.87085      -18.13738       -3.98487
C         11.05338      -19.30655       -3.74578
C          9.90771      -19.43145       -4.73663
C         13.00235      -18.02984       -4.79373
C         13.54278      -19.13990       -5.52690
C         14.24412      -19.04078       -6.66497
H          1.25012        4.71695       -1.90201
H          1.99612       -0.66537        0.42425
H          5.04244       -0.62777        0.90324
H          4.06464       -4.69565       -1.77791
H          2.51186       -2.82923       -1.80813
H          6.91509       -5.09610        0.52901
H          6.08458       -5.61198       -2.40023
H          7.18219       -7.38140        0.76004
H          7.85333       -7.09510       -3.46538
H         10.50153      -10.38274        0.84508
H         12.84414      -13.43876        0.01067
H         10.76252      -14.51823       -2.28481
H         13.05187      -12.67331       -3.18225
H         16.11663      -13.83337       -4.90666
H         15.08916      -12.87809       -3.85455
H         14.70604      -13.27558       -6.88385
H         15.33525      -11.81774       -6.09619
H         13.64462      -12.29725       -5.86006
H         10.62712      -19.22584       -2.73811
H         11.67490      -20.20577       -3.74787
H          9.22452      -18.57887       -4.65933
H          9.33405      -20.34212       -4.53514
H         10.27522      -19.47592       -5.76611
H         13.36367      -20.13645       -5.13233
H         14.47097      -18.08683       -7.13337
H         14.61993      -19.92844       -7.16305
