77

C          4.98497        3.39572       -2.23807
C          4.56949        4.40313       -3.06846
S          5.39355        4.30298       -4.59107
C          6.28079        2.93303       -4.10043
Cl         7.35799        2.17628       -5.19588
C          5.97379        2.56927       -2.82506
C          6.40306        1.51437       -1.95588
O          7.35264        0.77172       -2.08627
C          5.39415        1.59553       -0.81014
C          4.68543        2.92813       -0.90471
C          4.02564        3.60621        0.06189
C          3.46114        4.89752       -0.16953
N          3.00790        5.94668       -0.36595
C          3.88426        3.10486        1.38673
N          3.77734        2.67810        2.45889
C          5.10938        0.55071       -0.00418
C          5.65303       -0.82414       -0.01586
C          5.78150       -1.56044        1.15357
N          6.18481       -2.85359        1.21812
C          6.47174       -3.43444        0.03896
N          6.34339       -2.84109       -1.15843
C          5.93379       -1.55656       -1.15359
C          6.90340       -4.83873        0.04716
S          6.51405       -5.82999       -1.29352
C          7.25931       -7.23324       -0.63128
C          7.73327       -6.97037        0.65058
C          7.63057       -5.55410        0.98696
C          8.25445       -4.98315        2.23435
F          8.90114       -3.81174        1.96591
C          9.30386       -5.93033        2.82521
C          8.76188       -7.34585        2.94309
C          8.41160       -7.94726        1.58065
F          7.59512       -9.00768        1.85157
C          7.30748       -8.37994       -1.48377
C          7.27069       -9.64680       -1.04787
C          7.33086      -10.80974       -1.93111
N          6.78047      -11.93814       -1.45514
C          6.82604      -13.00706       -2.26478
C          7.43354      -12.99466       -3.49433
C          8.01809      -11.80259       -3.86891
N          7.94410      -10.68652       -3.12124
C          8.73300      -11.64564       -5.13960
C          9.41860      -12.63265       -5.73954
C         10.12676      -12.45958       -6.98207
C          9.61198      -12.09148       -8.16545
C         10.61184      -11.60151       -9.20177
O         11.80883      -11.80554       -9.25277
C          9.78888      -10.77836      -10.04318
C         10.02607       -9.94861      -11.09618
S          8.59315       -9.20301      -11.64362
C          7.62784      -10.01262      -10.45436
C          8.41454      -10.82701       -9.68486
C          8.22501      -11.77032       -8.61115
C          7.06313      -12.37038       -8.25537
C          5.81340      -11.94885       -8.78869
N          4.79199      -11.59653       -9.22293
C          7.00714      -13.51939       -7.41562
N          6.92771      -14.47777       -6.76030
Cl        11.51531       -9.59563      -11.86330
H          3.84098        5.18993       -2.92343
H          4.32912        0.64767        0.74834
H          5.54519       -1.12263        2.12139
H          5.82626       -1.14449       -2.15229
H          7.47344       -4.77526        2.97341
H          9.61457       -5.56043        3.80909
H         10.20615       -5.92801        2.19990
H          7.87195       -7.34961        3.58569
H          9.49239       -7.99452        3.44084
H          9.31525       -8.33686        1.09841
H          7.34504       -8.20137       -2.55832
H          7.15175       -9.90873       -0.00689
H          6.34776      -13.90499       -1.88597
H          7.44292      -13.87969       -4.11511
H          8.71108      -10.63866       -5.55071
H          9.51927      -13.61473       -5.27951
H         11.20718      -12.59435       -6.88658
H          6.56286       -9.82403      -10.42663
