94

C          3.47359        2.56488       -4.34527
C          3.60794        3.91914       -4.50392
S          5.22832        4.31185       -4.98215
C          5.69685        2.67390       -4.98571
Cl         7.31609        2.25018       -5.35041
C          4.65940        1.85733       -4.65257
C          4.50756        0.43735       -4.53058
O          5.26665       -0.42037       -4.93119
C          3.13913        0.30164       -3.85328
C          2.43273        1.63614       -3.96747
C          1.10970        1.90038       -3.86557
C          0.58702        3.21201       -4.05648
N          0.16908        4.28241       -4.21123
C          0.13835        0.89353       -3.61695
N         -0.64450        0.06099       -3.40599
C          2.74621       -0.78501       -3.15265
C          3.45486       -2.05868       -2.89874
C          2.71885       -3.24278       -2.73273
C          3.35946       -4.47871       -2.45714
N          2.48985       -5.65435       -2.22730
O          1.26360       -5.47425       -2.28880
O          3.00202       -6.74851       -1.96186
C          4.76352       -4.54436       -2.36697
C          5.47680       -3.34589       -2.52527
C          4.83250       -2.12601       -2.71958
C          5.56629       -5.76307       -2.19180
C          6.69259       -5.81575       -1.46313
C          7.50272       -6.99197       -1.40120
N          7.88942       -7.60694       -0.21696
C          7.37679       -7.29489        1.10169
C          6.11751       -8.09096        1.41516
C          8.70914       -8.72618       -0.46528
O          9.23525       -9.48535        0.32451
C          8.76827       -8.76979       -1.94401
C          8.02894       -7.64776       -2.43256
C          8.11882       -7.61575       -3.89291
O          7.67722       -6.74251       -4.61128
N          8.85237       -8.78941       -4.18489
C          9.31073       -9.10282       -5.53500
C          8.36090       -8.70988       -6.66976
C          9.24636       -9.44341       -2.99444
C         10.09423      -10.61071       -2.92995
C         10.05472      -11.52944       -1.94318
C         10.90610      -12.72200       -1.82865
C         11.38558      -13.32860       -0.63725
N         12.05130      -14.54349       -0.56940
C         12.38345      -15.25389       -1.68684
C         12.04935      -14.68191       -2.91437
C         11.30930      -13.43464       -2.98448
N         11.11261      -13.16422       -4.28667
O         11.74619      -14.16267       -4.99581
N         12.29750      -15.11101       -4.15689
C         11.30643      -12.64513        0.68480
C         12.25353      -12.83539        1.62288
C         12.30134      -12.24718        2.93936
C         12.47228      -10.98511        3.36444
C         12.31948      -10.81773        4.87939
O         12.21463      -11.68087        5.73065
C         12.31773       -9.39717        5.04518
C         12.20936       -8.56766        6.11971
S         12.33075       -6.93052        5.66577
C         12.53623       -7.33906        3.99451
C         12.48958       -8.69891        3.82347
C         12.67253       -9.63709        2.73334
C         13.09955       -9.32408        1.49093
C         13.19865       -7.96896        1.04333
N         13.27386       -6.86723        0.67091
C         13.59488      -10.27932        0.57241
N         14.06923      -11.00964       -0.19255
Cl        11.99442       -8.97860        7.76837
H          2.89817        4.72537       -4.37648
H          1.78701       -0.77678       -2.64072
H          1.63175       -3.20412       -2.81350
H          6.56646       -3.33435       -2.51609
H          5.46210       -1.24235       -2.75597
H          5.22967       -6.64998       -2.72595
H          7.06847       -4.95158       -0.92125
H          7.18095       -6.22086        1.18017
H          8.14875       -7.54417        1.83753
H          5.33011       -7.89864        0.67852
H          5.73377       -7.82358        2.40418
H          6.32169       -9.16708        1.40777
H          9.48935      -10.18017       -5.60899
H         10.26340       -8.58310       -5.68232
H          7.38688       -9.19872       -6.56760
H          8.78869       -8.99564       -7.63683
H          8.19507       -7.62965       -6.71898
H         10.82029      -10.69860       -3.73215
H          9.32271      -11.44228       -1.14299
H         12.89800      -16.19616       -1.56237
H         10.48178      -11.96237        0.85474
H         13.05773      -13.55363        1.43916
H         12.21040      -13.02994        3.70090
H         12.69415       -6.53642        3.28745
