84

C          3.94041        3.51012        2.01149
C          3.37146        4.56523        2.67581
S          3.56320        4.37421        4.38685
C          4.39288        2.89755        4.19811
Cl         4.97860        2.07322        5.58079
C          4.51188        2.55114        2.88591
C          5.12500        1.45413        2.19295
O          5.69066        0.48512        2.66207
C          4.95994        1.85090        0.72168
C          4.12750        3.10695        0.63643
C          3.61098        3.70719       -0.46281
C          2.83493        4.89895       -0.37973
N          2.21102        5.87465       -0.31144
C          3.78261        3.19916       -1.77994
N          3.93476        2.78283       -2.85208
C          5.63263        1.20679       -0.24944
C          6.45314        0.03700       -0.11065
C          6.12266       -1.19112        0.25720
C          7.30084       -1.94547        0.21008
C          8.39811       -1.06379       -0.18522
O          9.58044       -1.34207       -0.23733
O          7.82755        0.18154       -0.43653
C          6.96462       -3.17535        0.55968
O          5.57561       -3.32519        0.83614
C          5.03236       -2.05329        0.69450
O          3.87662       -1.72744        0.88683
C          7.80081       -4.32882        0.67827
N          7.79912       -5.23332        1.75071
C          6.91221       -5.27541        2.90055
C          6.70947       -3.97000        3.65476
C          8.69883       -6.30705        1.51543
O          8.92435       -7.29733        2.18141
C          9.29648       -5.96117        0.21723
C          8.68953       -4.74130       -0.23282
C          9.22567       -4.43536       -1.57173
O          8.89216       -3.51620       -2.29146
N         10.11917       -5.50135       -1.79878
C         10.90183       -5.61567       -3.01689
C         12.26046       -4.94056       -2.90854
C         10.13669       -6.39254       -0.72381
C         10.86781       -7.62238       -0.75691
C         11.73423       -8.03380        0.18043
C         12.45237       -9.31203        0.07854
C         12.71191      -10.02572        1.25095
C         13.38020      -11.24741        1.18898
F         13.56818      -11.91686        2.33623
C         13.86057      -11.76732       -0.02226
C         13.59109      -11.05874       -1.19503
C         12.90794       -9.84515       -1.13745
F         12.69302       -9.19891       -2.29411
C         14.54995      -13.06051       -0.13456
C         15.45904      -13.61819        0.68227
C         15.64012      -15.12312        0.51850
O         15.40667      -15.81109       -0.45619
C         16.06677      -15.51373        1.83345
C         16.26792      -16.70469        2.46029
S         16.70568      -16.48768        4.09485
C         16.63318      -14.76091        3.96415
C         16.29414      -14.40110        2.68807
C         16.10463      -13.17681        1.95060
C         16.57874      -11.95400        2.26699
C         17.16274      -11.67857        3.53819
N         17.62249      -11.46154        4.58132
C         16.59755      -10.87360        1.33781
N         16.63172       -9.99697        0.57711
Cl        16.10662      -18.28700        1.82543
H          2.86330        5.44742        2.31011
H          5.64534        1.57362       -1.27055
H          7.32448       -6.00289        3.61051
H          5.95086       -5.68454        2.56868
H          7.62152       -3.36825        3.68937
H          6.39008       -4.17935        4.68109
H          5.91242       -3.36759        3.21414
H         10.33775       -5.14379       -3.82870
H         11.02517       -6.66998       -3.28479
H         12.15870       -3.88473       -2.63798
H         12.78606       -4.99722       -3.86778
H         12.88676       -5.42355       -2.15145
H         10.67058       -8.24110       -1.62961
H         11.92368       -7.43544        1.06905
H         12.38239       -9.65588        2.21866
H         13.90849      -11.42676       -2.16721
H         14.18040      -13.65808       -0.97288
H         16.84168      -14.15719        4.83769
