76

C          4.94491        3.09187        0.17189
C          4.72470        4.41843       -0.09418
S          4.84589        4.71659       -1.79560
C          5.17893        3.07890       -2.12812
Cl         5.47813        2.59292       -3.74361
C          5.18628        2.32315       -0.99418
C          5.40656        0.92999       -0.71354
O          5.51537        0.01033       -1.49974
C          5.42922        0.89672        0.81839
C          4.99744        2.24878        1.34416
C          4.66326        2.60280        2.60822
C          4.24287        3.92423        2.94002
N          3.90095        4.99946        3.20969
C          4.67081        1.69135        3.69939
N          4.68242        0.94757        4.58875
C          5.89980       -0.16218        1.50325
C          6.41887       -1.42818        0.96409
C          7.78853       -1.58495        0.73499
C          8.28013       -2.81965        0.27200
N          9.70475       -2.89836       -0.00619
O         10.47481       -2.64153        0.92941
O         10.04675       -3.19144       -1.15906
C          7.44484       -3.92999        0.05886
C          6.07827       -3.75199        0.33268
C          5.56775       -2.51608        0.75506
C          7.94397       -5.25908       -0.35305
C          7.22440       -6.12918       -1.08098
C          7.69892       -7.40107       -1.48784
S          7.14094       -8.12304       -2.95526
C          8.10566       -9.54613       -2.77008
C          8.78123       -9.41096       -1.59865
C          8.56833       -8.24939       -0.85035
S          9.45611       -8.14277        0.72841
C         10.18760       -9.66195        0.27270
C         11.16880      -10.28329        1.10720
N         11.96264      -10.80777        1.76874
C          9.75072      -10.21092       -0.93265
C          8.07576      -10.54937       -3.77675
C          8.23758      -11.84745       -3.47850
C          8.24618      -12.83189       -4.50077
S          7.77726      -14.44868       -4.12417
C          8.03320      -14.85356       -5.78175
N          8.47343      -13.83771       -6.49855
N          8.59488      -12.67778       -5.76356
C          7.73566      -16.16892       -6.22745
C          7.40480      -16.39466       -7.50820
C          7.06643      -17.71353       -7.98230
C          5.95292      -18.10267       -8.62285
C          6.03135      -19.47360       -9.28681
O          6.83584      -20.36311       -9.08871
C          4.96139      -19.41324      -10.24080
C          4.48930      -20.25833      -11.19795
S          3.16360      -19.58496      -12.03131
C          3.20620      -18.13857      -11.07837
C          4.22229      -18.20234      -10.16208
C          4.70938      -17.40000       -9.06065
C          4.03899      -16.38884       -8.45906
C          2.88959      -15.79188       -9.05413
N          1.96839      -15.29593       -9.56017
C          4.34206      -15.93141       -7.14742
N          4.50595      -15.58414       -6.04922
Cl         5.04693      -21.82341      -11.61353
H          4.50832        5.25233        0.56020
H          5.98764       -0.14987        2.58404
H          8.47471       -0.75961        0.91380
H          5.37862       -4.57979        0.22874
H          4.49728       -2.43004        0.93002
H          8.96384       -5.49129       -0.05909
H          6.23694       -5.84605       -1.43877
H         10.14123      -11.15115       -1.31322
H          7.89168      -10.24074       -4.80561
H          8.34877      -12.18500       -2.45415
H          7.71733      -16.97341       -5.49748
H          7.40009      -15.58161       -8.23412
H          7.88070      -18.43443       -7.85985
H          2.46601      -17.37261      -11.26681
