91

C         10.28534       -0.12612        3.51442
C         11.53533        0.05029        4.04637
S         12.60199        0.70774        2.84935
C         11.37411        0.73077        1.66570
Cl        11.73510        1.26762        0.08024
C         10.19449        0.25503        2.15151
C          8.89525        0.01111        1.58140
O          8.48135        0.32391        0.48317
C          8.19902       -0.76406        2.69455
C          9.01089       -0.62703        3.96387
C          8.61720       -0.80117        5.24815
C          9.49908       -0.55755        6.34393
N         10.21966       -0.35833        7.23019
C          7.29440       -1.18071        5.60422
N          6.21936       -1.50297        5.89276
C          7.17133       -1.60063        2.46431
C          6.53432       -1.84181        1.20523
S          6.92862       -3.27484        0.34275
C          5.49298       -1.17550        0.57774
C          5.01044        0.16487        0.95205
O          5.63730        0.96172        1.64074
C          3.66182        0.41133        0.46244
C          2.85816        1.50790        0.70271
N          1.59811        1.20408        0.25440
C          0.40946        1.99072        0.54499
C          0.07769        2.98305       -0.55247
C          1.62218       -0.00152       -0.40678
C          2.91212       -0.50096       -0.34461
C          3.45406       -1.74358       -0.90373
O          2.83744       -2.46634       -1.67651
C          4.80424       -2.04680       -0.38660
C          5.56586       -3.16408       -0.71840
C          5.41006       -4.18421       -1.70296
N          5.87676       -4.10265       -3.02144
C          6.46987       -2.95924       -3.67979
C          7.97979       -2.88491       -3.51849
C          5.73257       -5.32993       -3.70168
O          6.06112       -5.64356       -4.82756
C          5.10987       -6.19087       -2.68823
C          4.92275       -5.41461       -1.48691
C          4.33222       -6.32080       -0.48133
O          4.02905       -6.04537        0.66180
N          4.25315       -7.55709       -1.16980
C          3.85185       -8.78827       -0.51375
C          2.36102       -9.05362       -0.62425
C          4.71602       -7.44802       -2.48114
C          4.79583       -8.55864       -3.40006
C          5.95189       -8.94796       -3.94667
C          6.09323      -10.02447       -4.86104
C          6.45591      -10.88455       -5.62468
C          7.18859      -11.88176       -6.52329
C          7.95207      -12.57376       -7.13642
C          8.93978      -13.29900       -7.85097
C          9.63093      -14.34893       -7.37726
C         10.38776      -15.14942       -8.42843
O         10.75014      -14.79295       -9.53227
C         10.49340      -16.43847       -7.80539
C         10.94656      -17.65803       -8.20483
S         10.74262      -18.83287       -6.98559
C         10.04772      -17.68375       -5.88990
C          9.99679      -16.44479       -6.47476
C          9.60673      -15.10947       -6.09426
C          9.48642      -14.63739       -4.82972
C          9.51564      -15.50775       -3.69906
N          9.53349      -16.22011       -2.78669
C          9.46570      -13.24999       -4.51712
N          9.50478      -12.13059       -4.21758
Cl        11.63612      -18.10179       -9.70808
H         11.92611       -0.15806        5.03410
H          6.79405       -2.23445        3.26169
H          3.06634        2.43709        1.22028
H          0.58292        2.51539        1.49250
H         -0.42053        1.29348        0.70403
H          0.90469        3.68130       -0.71766
H         -0.80992        3.56405       -0.28163
H         -0.12505        2.46989       -1.49765
H          0.72127       -0.42069       -0.83902
H          5.98924       -2.04176       -3.32888
H          6.25234       -3.04467       -4.75240
H          8.26274       -2.71981       -2.47594
H          8.37854       -2.05472       -4.11116
H          8.46589       -3.80593       -3.85758
H          4.12264       -8.71389        0.54566
H          4.41917       -9.62902       -0.92859
H          1.77978       -8.21675       -0.22493
H          2.09633       -9.95452       -0.06078
H          2.06231       -9.20586       -1.66616
H          3.86567       -9.07505       -3.63097
H          6.87715       -8.42949       -3.69840
H          9.08622      -12.98719       -8.88325
H          9.74142      -18.01656       -4.90693
