70

C          9.01669       -6.50799        3.43177
C          9.82325       -7.37166        4.12645
S          9.73506       -8.96339        3.44309
C          8.64667       -8.45603        2.23697
Cl         8.05708       -9.58077        1.08863
C          8.34970       -7.13224        2.35623
C          7.50338       -6.24072        1.62182
O          6.94036       -6.48520        0.57423
C          7.55157       -4.94641        2.45505
C          8.66699       -5.10546        3.48249
C          9.30560       -4.15081        4.19856
C         10.39401       -4.46011        5.06802
N         11.28007       -4.72100        5.77061
C          8.98880       -2.76881        4.10089
N          8.71659       -1.64451        4.01727
C          6.64514       -3.94269        2.37086
C          5.48975       -3.73849        1.46255
C          5.49800       -4.12788        0.12395
C          4.39412       -3.96392       -0.72044
C          3.31848       -3.26245       -0.18063
N          3.28320       -2.77720        1.08707
C          4.36068       -3.02865        1.87174
C          4.41611       -4.48589       -2.08912
S          3.59679       -3.69462       -3.38936
C          4.04981       -4.87851       -4.58952
C          4.82703       -5.78507       -3.95484
C          5.03425       -5.58126       -2.60381
N          5.80699       -6.51424       -1.96076
C          6.11029       -7.40066       -2.98710
C          6.88854       -8.58024       -2.77867
N          7.51367       -9.53790       -2.61595
C          5.54148       -6.98650       -4.20617
C          3.62526       -4.81619       -5.96560
S          2.62985       -3.56327       -6.53987
C          2.64286       -4.11895       -8.17076
C          3.34415       -5.31771       -8.25742
C          3.90644       -5.69855       -6.98653
C          3.52513       -6.10268       -9.47208
O          4.13793       -7.16603       -9.49788
C          1.93762       -3.37396       -9.17186
C          1.78827       -2.03911       -9.08830
C          1.09958       -1.21903      -10.05319
C         -0.18072       -1.30150      -10.44280
C         -0.54013       -0.56323      -11.72202
O          0.02292        0.38515      -12.23158
C         -1.64591       -1.34321      -12.20644
C         -2.38350       -1.35202      -13.34972
S         -3.53004       -2.61543      -13.34614
C         -3.05120       -3.15050      -11.76820
C         -2.04723       -2.35428      -11.28951
C         -1.28030       -2.23218      -10.07516
C         -1.63272       -2.66446       -8.84252
C         -2.73002       -3.55089       -8.64827
N         -3.61401       -4.29039       -8.51481
C         -1.02396       -2.16167       -7.65678
N         -0.58068       -1.71479       -6.68101
Cl        -2.26786       -0.30907      -14.70277
H         10.46509       -7.21812        4.98286
H          6.69015       -3.12993        3.09187
H          6.40321       -4.54055       -0.29844
H          2.42269       -3.04362       -0.75885
H          4.27866       -2.60541        2.87081
H          6.09065       -6.54833       -0.98467
H          5.63737       -7.52084       -5.14296
H          4.50105       -6.59585       -6.86641
H          3.07572       -5.70117      -10.39394
H          1.53466       -3.91714      -10.02240
H          2.24809       -1.46463       -8.28327
H          1.74814       -0.47138      -10.51665
H         -3.55113       -4.00167      -11.32486
