87

C          0.11075        1.25141        4.51102
C         -0.58771        2.01570        5.40873
S         -1.16464        3.46243        4.65198
C         -0.46625        3.03814        3.15693
Cl        -0.60210        4.10760        1.82618
C          0.16929        1.83530        3.22177
C          0.91194        1.04833        2.28304
O          1.05606        1.24541        1.09320
C          1.45043       -0.09651        3.14760
C          0.83860        0.00205        4.52936
C          0.88408       -0.87681        5.55889
C          0.18589       -0.65730        6.78072
N         -0.38879       -0.48499        7.77772
C          1.60416       -2.09941        5.50428
N          2.20257       -3.09392        5.46203
C          2.38521       -0.94004        2.66160
C          2.96592       -0.91235        1.34480
C          2.48173       -1.70058        0.32276
S          3.33474       -1.46953       -1.14119
C          4.36002       -0.31093       -0.42443
C          4.08343       -0.10365        0.91636
C          4.87311        0.83173        1.70509
O          5.52770        1.74311        1.21357
O          4.82053        0.51933        3.04266
C          5.62110        1.35180        3.80547
C          5.15731        1.96656        4.89119
C          5.87554        2.89166        5.71562
N          7.24189        2.87412        6.01714
C          8.24756        1.96922        5.50132
C          8.93813        2.54915        4.27386
C          7.59455        3.92349        6.89297
O          8.67627        4.21953        7.35973
C          6.30833        4.60869        7.11739
C          5.30713        3.90718        6.36971
C          4.01552        4.57285        6.60043
O          2.93748        4.24732        6.13574
N          4.36178        5.61892        7.47670
C          3.36954        6.53182        8.00589
C          2.73579        6.01400        9.28685
C          5.72930        5.61656        7.76495
C          6.36467        6.51804        8.68098
C          7.44154        7.26086        8.37446
C          8.14481        7.98945        9.37630
S          9.80797        8.36445        9.14189
C          9.99102        8.93790       10.74124
C         11.31093        9.33696       11.18098
O         11.67099        9.38251       12.35604
C          8.79112        8.91737       11.42837
C          7.72067        8.47702       10.60040
C          8.64379        9.36790       12.77804
C          8.78184        8.62536       13.89107
C          9.13015        9.39012       15.15868
O          8.84483       10.53489       15.45135
C          9.90907        8.42095       15.88350
C         10.62191        8.43229       17.04286
S         11.35761        6.92217       17.34585
C         10.69834        6.22496       15.90364
C          9.94248        7.15249       15.24038
C          9.07915        7.18085       14.08717
C          8.45643        6.11423       13.53857
C          8.86076        4.77855       13.81108
N          9.19372        3.68800       14.02779
C          7.22809        6.24182       12.83142
N          6.17778        6.30670       12.34316
Cl        10.83772        9.71845       18.15237
H         -0.80465        1.86447        6.45764
H          2.81355       -1.71154        3.29193
H          1.65380       -2.39555        0.34632
H          5.13778        0.16316       -1.01158
H          6.61585        1.44416        3.39691
H          4.10556        1.82611        5.14438
H          7.80280        0.99191        5.29114
H          8.99886        1.80200        6.28070
H          8.22169        2.94494        3.54662
H          9.54391        1.78454        3.77868
H          9.59475        3.37780        4.55683
H          2.58075        6.64906        7.25264
H          3.81863        7.51840        8.16157
H          2.22327        5.06156        9.11349
H          1.99994        6.73127        9.66295
H          3.48649        5.85176       10.06668
H          5.96175        6.49402        9.68948
H          7.85205        7.24023        7.36631
H         12.02680        9.60888       10.38336
H          6.68608        8.43267       10.92106
H          8.57776       10.45270       12.88983
H         10.90924        5.18891       15.67249
