80

C          5.85331       -2.17637       -6.26709
C          6.27920       -1.92902       -7.54569
S          7.87218       -2.56733       -7.79065
C          7.95385       -3.15336       -6.19452
Cl         9.36511       -3.96225       -5.65480
C          6.81384       -2.87466       -5.50224
C          6.39498       -3.12293       -4.15528
O          7.02862       -3.71195       -3.30776
C          5.02284       -2.42451       -4.08840
C          4.67135       -1.92045       -5.47532
C          3.49667       -1.40877       -5.92028
C          3.32428       -0.98656       -7.27089
N          3.18911       -0.63736       -8.36673
C          2.33681       -1.28043       -5.10938
N          1.39297       -1.18010       -4.43781
C          4.35556       -2.18955       -2.94282
C          4.73945       -2.64094       -1.65604
O          5.42450       -3.79962       -1.42696
C          5.65843       -3.79993       -0.07779
N          5.03186       -2.78822        0.49380
N          4.45039       -2.04844       -0.51091
C          6.46080       -4.77166        0.55324
C          7.45030       -5.38530       -0.12028
C          8.32034       -6.38371        0.44302
C          8.19889       -6.89795        1.68480
C          9.22618       -7.90981        1.88312
C          9.94677       -7.94399        0.69363
C          9.43828       -7.06423       -0.18380
C         11.12723       -8.84760        0.37677
N         12.10652       -9.59722        0.11390
C          9.60606       -8.60927        2.94558
C         10.50068       -9.73966        3.11733
C         10.64869       -9.97049        4.44039
C          9.85180       -8.96566        5.14401
C          9.24927       -8.18886        4.23034
C          8.11822       -7.21392        4.51425
N          7.17992       -6.40512        4.74978
C         11.46735      -11.01786        4.95951
S         12.88637      -11.47879        4.09133
C         13.63009      -12.23212        5.43414
C         12.72394      -12.29659        6.48735
C         11.39139      -11.80506        6.09856
C         10.22184      -12.02010        6.87125
C          8.76836      -11.88744        6.47742
F          8.54609      -11.56220        5.17841
F          8.09096      -13.05692        6.66769
F          8.11425      -10.95595        7.22235
C         10.52670      -12.59828        8.13989
C         11.82922      -12.97888        8.57050
C         12.96831      -12.88425        7.74744
C         14.26252      -13.27098        8.19806
N         15.33055      -13.54673        8.56031
C         14.88948      -12.85836        5.19898
C         16.10775      -12.31397        5.34762
C         17.24155      -13.33262        5.43118
O         17.28880      -14.44738        4.94875
C         18.19189      -12.65318        6.26762
C         19.38839      -12.98284        6.82539
S         20.01339      -11.70785        7.77090
C         18.67194      -10.67552        7.40192
C         17.79480      -11.32244        6.57319
C         16.59923      -10.99631        5.82635
C         16.27527       -9.75418        5.40325
C         16.82685       -8.58793        6.01290
N         17.25279       -7.64430        6.53182
C         15.53985       -9.50892        4.20730
N         15.04167       -9.23707        3.19746
Cl        20.27365      -14.44091        6.67436
H          5.79894       -1.42232       -8.37185
H          3.46578       -1.57743       -2.90538
H          6.24400       -4.96467        1.59618
H          7.65387       -5.12325       -1.15965
H          7.40519       -6.62761        2.35077
H          9.77943       -6.88444       -1.19299
H         10.92884      -10.34697        2.33742
H          9.69647       -8.93335        6.21162
H          9.69782      -12.78600        8.83150
H         11.93041      -13.39209        9.57677
H         14.82267      -13.92086        4.95042
H         18.65385       -9.67331        7.80858
