71

C          2.54464        2.43280        2.60984
C          2.36224        3.72549        3.02553
S          3.50780        4.12536        4.26235
C          4.21463        2.57435        4.20615
Cl         5.54257        2.21367        5.22631
C          3.60542        1.77746        3.28446
C          3.81059        0.43132        2.83083
O          4.57645       -0.40580        3.26239
C          2.82272        0.31581        1.66814
C          1.93795        1.53685        1.65269
C          0.77289        1.72869        0.98602
C          0.02273        2.93484        1.10635
N         -0.58326        3.91722        1.20474
C          0.18251        0.73280        0.16196
N         -0.29289       -0.09134       -0.50536
C          2.90345       -0.68161        0.76709
C          3.83023       -1.81782        0.79030
C          3.51933       -3.01731        1.40074
N          4.31239       -4.11084        1.37127
C          5.47935       -3.98071        0.71237
N          5.88720       -2.86298        0.08078
C          5.05031       -1.80408        0.14225
C          6.36153       -5.16117        0.67399
S          7.40502       -5.38381       -0.66752
C          8.06376       -6.85155       -0.06554
C          7.51396       -7.16761        1.16909
C          6.50381       -6.20505        1.58460
C          5.73898       -6.36420        2.88106
S          6.35627       -5.17205        4.12814
C          5.84862       -7.79975        3.42914
C          7.29029       -8.31339        3.42732
C          7.85631       -8.37150        2.00954
C          9.05374       -7.56823       -0.85161
S          9.16944       -9.27608       -0.89005
C         10.45887       -9.26581       -2.01425
C         11.02633      -10.54178       -2.40065
O         12.13889      -10.70174       -2.89836
C         10.77084       -7.98010       -2.41758
C          9.99983       -7.01332       -1.69440
C         11.77265       -7.66874       -3.39732
C         11.82492       -6.62680       -4.24521
C         13.18848       -6.34664       -4.86930
O         14.12114       -7.10723       -5.03200
C         13.10793       -4.93731       -5.13888
C         13.97982       -3.99766       -5.59838
S         13.26449       -2.44950       -5.65250
C         11.74869       -3.04679       -5.06591
C         11.82433       -4.39745       -4.86038
C         10.92528       -5.45937       -4.48297
C          9.57437       -5.42942       -4.57133
C          8.86351       -4.21348       -4.76816
N          8.29503       -3.20868       -4.91407
C          8.77240       -6.60954       -4.57389
N          8.09959       -7.54882       -4.62471
Cl        15.60728       -4.19744       -6.08990
H          1.65679        4.48219        2.71033
H          2.27340       -0.71027       -0.11629
H          2.58529       -3.15157        1.93907
H          5.40594       -0.92014       -0.37987
H          4.67643       -6.15891        2.72102
H          5.28230       -5.23602        4.92697
H          5.24497       -8.46688        2.79771
H          5.42473       -7.86928        4.43801
H          7.92404       -7.67411        4.05262
H          7.32892       -9.31574        3.86956
H          7.44839       -9.26182        1.51640
H          8.94431       -8.48971        2.07496
H         10.39138      -11.42692       -2.21850
H         10.10214       -5.94147       -1.80365
H         12.63646       -8.34237       -3.39642
H         10.92531       -2.35624       -4.93621
