82

C          1.15446        2.90565        4.38186
C          0.63656        3.75913        5.32053
S          1.88075        4.78560        5.95288
C          3.06858        4.07307        4.96005
Cl         4.69448        4.60018        5.07290
C          2.54272        3.09621        4.16986
C          3.09006        2.19970        3.19214
O          4.20600        2.20796        2.71161
C          1.90568        1.27344        2.89093
C          0.66331        1.84121        3.53751
C         -0.63273        1.50258        3.33512
C         -1.70150        2.16568        4.00116
N         -2.57554        2.70895        4.54718
C         -1.03373        0.48827        2.42180
N         -1.35639       -0.34521        1.68367
C          2.07626        0.08985        2.27343
C          3.34529       -0.37155        1.83642
O          4.19244       -1.15380        2.61778
C          4.00429       -0.18600        0.65436
C          3.87729        0.47272       -0.60584
O          2.94898        1.15638       -0.99670
N          5.04674        0.15501       -1.26790
C          5.91844       -0.62471       -0.53107
O          7.01487       -1.03678       -0.86277
C          5.23493       -0.83748        0.70661
C          5.37933       -1.43684        1.92942
C          6.46244       -2.19350        2.45288
C          6.41985       -2.69451        3.69775
C          7.49511       -3.47556        4.28997
C          8.76135       -3.04981        4.50812
C          9.22295       -1.66008        4.14496
C          9.82952       -3.97602        5.08083
N         10.33067       -3.47854        6.35596
C         10.83742       -4.25385        7.38233
C         11.31931       -3.81684        8.55847
C         11.80893       -4.72076        9.54401
O         11.33852       -6.02693        9.69573
C         12.77862       -4.57970       10.50643
C         13.74187       -3.65433       11.02608
O         13.98009       -2.52114       10.65065
N         14.37323       -4.35045       12.04123
C         13.93276       -5.64853       12.19376
O         14.33473       -6.49447       12.97141
C         12.90774       -5.78283       11.20698
C         12.01271       -6.69086       10.71637
C         11.76521       -8.03728       11.08650
C         10.54749       -8.56891       10.89855
C         10.19654       -9.92407       11.25123
C         10.74142      -11.05970       10.78688
C         10.42684      -12.32739       11.57018
O          9.51771      -12.52926       12.35113
C         11.52113      -13.18416       11.20543
C         11.92265      -14.43082       11.57643
S         13.36156      -14.88880       10.78373
C         13.43982      -13.39766        9.90367
C         12.37886      -12.59840       10.23383
C         11.83850      -11.32822        9.81004
C         12.12257      -10.67584        8.65590
C         13.23455      -11.03677        7.83811
N         14.15617      -11.32706        7.19160
C         11.25784       -9.67371        8.11342
N         10.53936       -8.91203        7.62237
Cl        11.17932      -15.51049       12.67899
H         -0.36873        3.87050        5.70402
H          1.26713       -0.61389        2.12493
H          5.26065        0.48433       -2.19341
H          7.33445       -2.35183        1.82205
H          5.53375       -2.53932        4.31202
H          7.20994       -4.48990        4.57615
H          8.40995       -0.98954        3.85057
H          9.93656       -1.70203        3.31611
H          9.69835       -1.17804        5.00076
H         10.65288       -4.07505        4.36273
H          9.41541       -4.97752        5.23697
H         10.60230       -2.50152        6.38425
H         10.83879       -5.31922        7.14528
H         11.36039       -2.75284        8.76866
H         15.12436       -3.95810       12.58339
H         12.57325       -8.60432       11.54113
H          9.73103       -7.95605       10.51377
H          9.41985       -9.98135       12.01883
H         14.25321      -13.24424        9.20726
