89

C          1.35447        0.03849       -5.98178
C          0.55383        0.51067       -6.98742
S          0.08138       -0.78389       -8.03538
C          0.95419       -1.93245       -7.12623
Cl         0.97140       -3.56911       -7.63054
C          1.58031       -1.35957       -6.06037
C          2.43433       -1.84906       -5.01334
O          2.73490       -2.99740       -4.76123
C          2.85575       -0.55808       -4.30443
C          2.04509        0.59006       -4.84170
C          1.91192        1.83850       -4.33428
C          1.08616        2.81870       -4.94681
N          0.41724        3.62000       -5.45364
C          2.55364        2.25836       -3.13434
N          3.08195        2.59739       -2.15995
C          3.90255       -0.51378       -3.46128
C          4.71288       -1.65292       -3.03638
C          4.34037       -2.39042       -1.91702
C          5.13907       -3.46725       -1.49278
N          4.69691       -4.10305       -0.27019
O          3.57347       -4.62540       -0.27673
O          5.44328       -4.02373        0.71514
C          6.30012       -3.85628       -2.18388
C          6.65631       -3.06956       -3.29969
C          5.88266       -1.98137       -3.71804
C          7.17294       -5.03124       -1.97026
C          7.02391       -6.05563       -1.11818
C          7.83169       -7.24593       -1.12540
N          8.03792       -8.03395        0.01152
C          7.56705       -7.74094        1.35535
C          6.15957       -8.25596        1.62640
C          8.77871       -9.19701       -0.29116
O          9.15661      -10.09537        0.43289
C          9.00228       -9.07368       -1.74459
C          8.39412       -7.84611       -2.18131
C          8.60029       -7.73624       -3.63986
O          8.27066       -6.82713       -4.37179
N          9.29239       -8.92246       -3.94749
C          9.72975       -9.22270       -5.29575
C         11.11203       -8.66651       -5.59362
C          9.53854       -9.68150       -2.80397
C         10.25207      -10.92324       -2.83631
C         11.34003      -11.14224       -2.08314
C         12.01039      -12.38882       -2.12428
S         12.88804      -12.91448       -0.73789
C         13.22350      -14.38617       -1.57467
N         12.76534      -14.39113       -2.81142
N         12.05236      -13.25211       -3.12104
C         13.91902      -15.41907       -0.89263
C         14.17211      -16.59622       -1.48567
C         14.84415      -17.65635       -0.77308
C         14.80578      -18.98098       -0.98259
C         15.86912      -19.77448       -0.23248
O         16.56187      -19.41604        0.70049
C         15.88397      -21.01755       -0.94600
C         16.62714      -22.15431       -0.85902
S         16.16021      -23.29857       -2.03208
C         14.92305      -22.25864       -2.65978
C         14.90068      -21.07621       -1.96838
C         14.09300      -19.87666       -1.94151
C         12.85891      -19.73358       -2.48031
C         12.32394      -20.69427       -3.39414
N         11.90967      -21.47306       -4.14281
C         11.95365      -18.70435       -2.08874
N         11.17839      -17.91718       -1.74351
Cl        17.89180      -22.52171        0.23562
H          0.20402        1.51064       -7.20752
H          4.27273        0.41072       -3.03295
H          3.43546       -2.13498       -1.36900
H          7.54427       -3.30793       -3.88726
H          6.20298       -1.41187       -4.58765
H          8.00324       -5.08535       -2.67636
H          6.22425       -6.07654       -0.39321
H          7.61825       -6.66098        1.53233
H          8.25243       -8.21483        2.06761
H          5.41395       -7.72988        1.02209
H          5.90000       -8.10190        2.67947
H          6.07354       -9.32457        1.40622
H          9.01391       -8.77121       -5.99226
H          9.70119      -10.30362       -5.46353
H         11.13437       -7.57825       -5.47050
H         11.39854       -8.89710       -6.62507
H         11.86630       -9.09456       -4.92583
H          9.86812      -11.69344       -3.50338
H         11.71250      -10.37564       -1.41037
H         14.19576      -15.25363        0.14564
H         13.88600      -16.75642       -2.52293
H         15.51793      -17.28819        0.00838
H         14.31048      -22.61647       -3.47589
