86

C          1.22044       -1.08785       -4.27621
C          0.52884       -1.19510       -5.45270
S         -0.35932       -2.68345       -5.49139
C          0.21063       -3.14617       -3.95278
Cl        -0.25462       -4.65578       -3.28954
C          1.04514       -2.21042       -3.42633
C          1.81590       -2.12506       -2.21956
O          1.79705       -2.86379       -1.25577
C          2.66513       -0.87900       -2.46907
C          2.11667       -0.13973       -3.66222
C          2.31934        1.14791       -4.02585
C          1.68844        1.71786       -5.16734
N          1.17756        2.17734       -6.10661
C          3.13847        2.03260       -3.27221
N          3.81853        2.73334       -2.64142
C          3.83026       -0.68277       -1.82858
C          4.34057       -1.57348       -0.84377
S          5.40045       -2.84203       -1.29628
C          5.79126       -3.27630        0.34410
C          4.93181       -2.55869        1.17371
C          4.10098       -1.64732        0.50418
O          3.16275       -0.90819        1.11499
C          2.85769       -1.23276        2.38897
O          1.82268       -0.85420        2.92186
C          3.93643       -2.02704        3.20025
O          3.90031       -2.01640        4.42502
O          4.91175       -2.66327        2.51309
C          6.80211       -4.25611        0.63106
N          7.98596       -4.51432       -0.10456
C          8.52552       -3.85532       -1.27724
C          8.66971       -4.79509       -2.47179
C          8.77958       -5.50056        0.51943
O          9.85569       -5.96098        0.19887
C          8.00334       -5.83367        1.70639
C          6.78616       -5.06447        1.70732
C          6.04295       -5.48509        2.92451
O          4.91073       -5.18617        3.24281
N          6.94850       -6.34797        3.57931
C          6.66755       -6.94114        4.87405
C          6.05106       -8.32420        4.76370
C          8.07599       -6.58200        2.80293
C          9.12669       -7.48090        3.17820
C          9.51195       -8.51664        2.41375
C         10.53236       -9.42172        2.82456
S         11.43631      -10.28604        1.62955
C         12.44223      -11.06909        2.79751
C         11.99038      -10.74388        4.06270
C         10.96567       -9.79573        4.07884
O         10.45116       -9.29857        5.21548
C         11.03417       -9.63352        6.38140
O         10.77785       -9.04520        7.42296
C         12.05409      -10.81855        6.37456
O         12.47592      -11.28389        7.42424
O         12.49583      -11.27620        5.18548
C         13.48045      -11.94462        2.34949
C         14.65002      -12.14182        2.98422
C         15.37230      -13.44877        2.67531
O         15.30577      -14.12810        1.67044
C         16.04927      -13.71054        3.92023
C         16.76670      -14.74817        4.43175
S         17.20687      -14.46882        6.05821
C         16.45455      -12.90817        6.07579
C         15.92053      -12.63962        4.84580
C         15.24751      -11.54229        4.20841
C         15.34279      -10.23207        4.52755
C         15.91662       -9.79572        5.75317
N         16.34814       -9.43939        6.76956
C         14.91697       -9.20665        3.63619
N         14.57369       -8.37029        2.91070
Cl        17.22264      -16.21172        3.66928
H          0.47267       -0.53146       -6.30574
H          4.49630        0.13395       -2.08808
H          9.52211       -3.48100       -1.01329
H          7.95047       -2.97717       -1.55684
H          9.50433       -5.49045       -2.32742
H          8.88198       -4.22487       -3.38168
H          7.76588       -5.39012       -2.63556
H          5.97484       -6.28366        5.41207
H          7.59124       -6.97848        5.46309
H          5.10603       -8.28774        4.21316
H          5.85285       -8.72980        5.76093
H          6.71775       -9.01807        4.24248
H          9.59422       -7.26744        4.13491
H          9.03985       -8.68454        1.44665
H         13.24570      -12.56488        1.48149
H         16.46925      -12.31803        6.98364
