83

C          3.12120        3.04518        1.71735
C          2.79476        4.19413        2.39047
S          4.05385        4.61577        3.50434
C          4.99171        3.26243        3.06217
Cl         6.49555        2.98719        3.83403
C          4.37807        2.51452        2.10276
C          4.71074        1.29891        1.41192
O          5.74326        0.66187        1.45916
C          3.44480        1.01484        0.59919
C          2.52142        2.20813        0.70236
C          1.42586        2.49608       -0.03907
C          0.67360        3.68560        0.15880
N          0.05511        4.65988        0.32624
C          0.95986        1.66287       -1.09237
N          0.58593        0.97414       -1.94723
C          3.21073       -0.18420        0.02889
C          4.08519       -1.36207        0.02166
C          4.04790       -2.31830        1.01703
N          4.79629       -3.44125        1.01952
C          5.62890       -3.61269       -0.02754
N          5.71490       -2.76301       -1.07061
C          4.93873       -1.66047       -1.02116
C          6.48096       -4.81692       -0.04937
C          6.38577       -5.79197        0.96197
C          7.18975       -6.92182        0.90203
C          8.10170       -7.11187       -0.15579
C          8.22966       -6.16784       -1.15406
C          7.42038       -5.02867       -1.09278
C          8.78369       -8.36934        0.02928
C          8.31471       -8.96864        1.21473
C          7.24971       -8.09634        1.87624
C          5.90250       -8.82742        1.94301
C          7.69377       -7.64125        3.27086
C          8.80612      -10.18959        1.63735
C          9.75902      -10.84379        0.84556
C         10.23059      -10.23476       -0.33593
C          9.74121       -8.99293       -0.75142
C         10.31092      -12.13920        1.25375
C          9.60107      -13.05156        1.93773
C         10.14786      -14.32940        2.38180
C         11.47724      -14.52646        2.70187
N         11.98479      -15.69444        3.13875
C         11.10218      -16.68447        3.31001
N          9.78526      -16.62466        3.04168
C          9.34069      -15.43348        2.58258
C         11.64684      -17.93894        3.79674
C         11.05133      -18.87210        4.55044
C         11.73679      -20.22905        4.53905
O         12.87726      -20.49827        4.21949
C         10.66931      -21.10852        4.92362
C         10.53543      -22.45909        5.02185
S          8.96326      -22.89900        5.51354
C          8.44863      -21.24672        5.60399
C          9.47906      -20.41199        5.26394
C          9.71207      -18.98767        5.19781
C          8.97553      -18.02413        5.79977
C          7.71589      -18.30845        6.40067
N          6.68815      -18.54404        6.88490
C          9.43868      -16.68994        5.98681
N          9.79498      -15.60430        6.19439
Cl        11.70225      -23.67386        4.71282
H          1.92146        4.83128        2.33655
H          2.26993       -0.40877       -0.46254
H          3.37621       -2.22851        1.86579
H          5.02051       -1.02280       -1.89657
H          5.68664       -5.66862        1.78517
H          8.93472       -6.29529       -1.96818
H          7.52433       -4.28416       -1.88125
H          5.57222       -9.16128        0.95165
H          5.11714       -8.17874        2.34791
H          5.95962       -9.71491        2.58416
H          8.66047       -7.12428        3.23948
H          7.79974       -8.49219        3.95395
H          6.96689       -6.95120        3.71450
H          8.44883      -10.61862        2.56734
H         10.97634      -10.73208       -0.95325
H         10.10076       -8.53996       -1.66934
H         11.34020      -12.32181        0.95577
H          8.55881      -12.87268        2.19403
H         12.20587      -13.72347        2.62875
H          8.27335      -15.39531        2.37809
H         12.65055      -18.11542        3.41025
H          7.43273      -21.03186        5.90694
