88

C          5.58250        3.44755        3.63786
C          5.65587        4.24985        4.74619
S          6.98969        3.77413        5.74734
C          7.44131        2.53029        4.67395
Cl         8.77296        1.51982        5.04883
C          6.61745        2.48195        3.59135
C          6.56942        1.66897        2.41166
O          7.46271        0.98815        1.94808
C          5.21476        2.05251        1.80167
C          4.73086        3.31643        2.47681
C          3.77404        4.18522        2.07234
C          3.46697        5.36491        2.80844
N          3.21866        6.32659        3.40966
C          3.02792        4.01496        0.87425
N          2.41132        3.87055       -0.09718
C          4.56704        1.27153        0.91541
C          5.00614       -0.03029        0.54360
O          5.69697       -0.88898        1.39730
C          4.80976       -0.75220       -0.60391
C          4.23870       -0.66796       -1.91268
O          3.68448        0.28697       -2.42323
N          4.48329       -1.90902       -2.47007
C          5.19054       -2.76577       -1.65114
O          5.57084       -3.89646       -1.89156
C          5.38292       -2.01468       -0.45252
C          5.98371       -2.09547        0.77133
C          6.76050       -3.13741        1.33266
C          7.76143       -2.86653        2.18391
C          8.63885       -3.87486        2.71081
N          9.46797       -4.69409        1.93547
C          9.69352       -4.60009        0.50601
C         10.82041       -3.63935        0.16068
C         10.21001       -5.58857        2.73751
O         11.04917       -6.40726        2.42186
C          9.74291       -5.27221        4.09664
C          8.79029       -4.19750        3.99833
C          8.32599       -3.87879        5.35863
O          7.52328       -3.02837        5.68361
N          9.04028       -4.80264        6.15117
C          8.88893       -4.86277        7.59076
C          7.82218       -5.86033        8.01045
C          9.86720       -5.62025        5.37779
C         10.67916       -6.66214        5.94349
C         12.00421       -6.75572        5.75188
C         12.78508       -7.77215        6.37272
S         14.24169       -8.29033        5.62220
C         14.59352       -9.40404        6.86841
C         15.82717      -10.15594        6.78406
O         16.04188      -11.21513        7.37032
C         13.61095       -9.41422        7.84056
C         12.60862       -8.43426        7.57725
C         13.71462      -10.16296        9.05500
C         13.33007      -11.42573        9.30616
C         14.00235      -12.07517       10.51055
O         14.49529      -11.53312       11.48344
C         13.93385      -13.47195       10.18199
C         14.41295      -14.61438       10.74653
S         13.99468      -15.99199        9.83167
C         13.14195      -15.04365        8.65769
C         13.19610      -13.71685        8.99240
C         12.64647      -12.47696        8.50021
C         11.56158      -12.34468        7.69971
C         10.99233      -13.46391        7.02411
N         10.53283      -14.37377        6.47526
C         10.80241      -11.14898        7.61655
N         10.09828      -10.22604        7.58707
Cl        15.32891      -14.79670       12.18251
H          5.03810        5.07692        5.06889
H          3.60900        1.55355        0.49448
H          4.20798       -2.15394       -3.40582
H          6.57065       -4.15412        0.99893
H          7.94997       -1.84494        2.51646
H          8.77422       -4.30916       -0.00749
H          9.95957       -5.59766        0.13686
H         10.63659       -2.64231        0.57311
H         10.91998       -3.54832       -0.92572
H         11.77571       -3.99677        0.55919
H          8.60452       -3.86720        7.95062
H          9.85272       -5.10800        8.05022
H          6.84890       -5.59454        7.58543
H          7.72816       -5.87972        9.10039
H          8.06667       -6.87204        7.67231
H         10.15123       -7.38740        6.55903
H         12.51325       -6.04012        5.10875
H         16.61623       -9.71814        6.14548
H         11.78316       -8.21751        8.24695
H         14.31392       -9.66165        9.81935
H         12.66479      -15.54781        7.82752
