89

C          5.35073       -7.90654        0.99266
C          5.19277       -9.26372        1.12983
S          5.10918      -10.00560       -0.43470
C          5.29655       -8.51438       -1.23561
Cl         5.27436       -8.46123       -2.94538
C          5.41156       -7.47316       -0.35546
C          5.53990       -6.03930       -0.48125
O          5.81362       -5.38754       -1.46188
C          5.29375       -5.57518        0.95288
C          5.46827       -6.76831        1.86838
C          5.82347       -6.78688        3.17486
C          6.06586       -8.01011        3.87427
N          6.25430       -9.00105        4.42784
C          6.08073       -5.59348        3.91023
N          6.29677       -4.62994        4.50935
C          4.81249       -4.36575        1.29610
C          4.57027       -3.22616        0.45889
S          5.89838       -2.12472        0.24795
C          4.86101       -0.91970       -0.45414
C          5.04193        0.38710       -1.00965
C          3.83983        0.94507       -1.39997
C          3.62845        2.22840       -2.05555
O          4.43603        2.80200       -2.77140
O          2.41726        2.76850       -1.76856
S          2.49766       -0.05499       -1.03178
C          3.56709       -1.34299       -0.49699
C          3.40267       -2.72347       -0.11623
C          2.13363       -3.36085       -0.25562
N          1.44100       -3.42553       -1.48546
C          1.95415       -3.10564       -2.80963
C          2.51513       -4.32299       -3.52704
C          0.18614       -4.05449       -1.34791
O         -0.65900       -4.31557       -2.18542
C          0.15561       -4.40507        0.06988
C          1.37800       -3.94869        0.67967
C          1.32416       -4.32828        2.10736
O          2.18243       -4.15423        2.94526
N          0.08741       -4.99773        2.21002
C         -0.27907       -5.77450        3.38604
C          0.19085       -7.22052        3.28754
C         -0.59457       -5.00420        0.99194
C         -1.91983       -5.53428        0.82692
C         -2.92550       -5.06050        1.58103
C         -4.27629       -5.46295        1.44250
S         -5.48737       -4.33138        1.86932
C         -6.78241       -5.38373        1.44187
C         -6.27946       -6.60141        1.01644
C         -4.84773       -6.64836        1.02434
C         -7.08941       -7.71009        0.57635
N         -7.75016       -8.59359        0.23157
C         -8.09229       -4.83006        1.57315
C         -9.19380       -5.55096        1.81110
C        -10.47835       -4.91339        1.99599
C        -11.59780       -5.13232        1.28838
C        -12.89713       -4.69190        1.94765
O        -13.05991       -3.85679        2.81239
C        -13.84736       -5.58935        1.34997
C        -15.17047       -5.84908        1.53905
S        -15.71179       -7.11360        0.53038
C        -14.15008       -7.30352       -0.19665
C        -13.27113       -6.40618        0.33901
C        -11.89619       -6.02040        0.13021
C        -11.16229       -6.22723       -0.98059
C        -11.58920       -7.11487       -2.01297
N        -11.94426       -7.84548       -2.83727
C         -9.97903       -5.47835       -1.26901
N         -9.05882       -4.83283       -1.54877
Cl       -16.26234       -5.09535        2.62061
H          5.10879       -9.88440        2.01078
H          4.57762       -4.17347        2.34135
H          6.00438        0.87790       -1.11323
H          1.89559        2.19565       -1.17136
H          2.72794       -2.33895       -2.76921
H          1.12687       -2.69498       -3.40121
H          3.41760       -4.68738       -3.02667
H          2.77968       -4.06062       -4.55646
H          1.79057       -5.14187       -3.55902
H         -1.36149       -5.75739        3.52855
H          0.16710       -5.30532        4.26738
H         -0.26208       -7.72935        2.42858
H         -0.09881       -7.76899        4.18946
H          1.27692       -7.28421        3.17847
H         -2.08104       -6.23990        0.01892
H         -2.71421       -4.28625        2.31698
H         -4.26533       -7.51416        0.72627
H         -8.18465       -3.74759        1.47993
H         -9.16823       -6.62761        1.95862
H        -10.53400       -4.28374        2.88872
H        -14.01536       -8.05809       -0.96266
