82

C          9.97828        0.59140        6.23714
C         10.47688        1.21653        7.35099
S         11.98969        0.51056        7.81113
C         11.94907       -0.59092        6.50986
Cl        13.21387       -1.73243        6.33458
C         10.83476       -0.42510        5.74305
C         10.32225       -1.06345        4.56051
O         10.87653       -1.86779        3.83879
C          8.92857       -0.44143        4.42058
C          8.79905        0.69503        5.40824
C          7.84512        1.65351        5.47518
C          7.87962        2.68978        6.45265
N          7.90797        3.53295        7.24898
C          6.75386        1.73590        4.56257
N          5.86490        1.80184        3.82671
C          7.98898       -0.97002        3.61150
C          8.13866       -2.13053        2.72197
C          8.56248       -1.95972        1.40191
C          8.68999       -3.08263        0.57092
N          9.09233       -2.86273       -0.80552
O          8.34810       -2.14972       -1.49335
O         10.15116       -3.37839       -1.18646
C          8.40883       -4.37670        1.02422
C          7.95395       -4.52826        2.34072
C          7.80966       -3.41419        3.17852
C          8.62069       -5.58149        0.22203
C          7.65855       -6.19721       -0.48007
C          7.90521       -7.39786       -1.19808
S          7.04094       -7.79397       -2.63570
C          7.85632       -9.30954       -2.85956
C          8.71619       -9.44726       -1.81519
C          8.75850       -8.42203       -0.86891
S          9.86666       -8.67969        0.54235
C         10.29365      -10.19874       -0.21471
C         11.29070      -11.01567        0.47592
O         12.18134      -10.54757        1.18800
C         11.19721      -12.51717        0.29217
C         12.02547      -12.99528       -0.88365
C          9.59859      -10.48532       -1.40024
C          7.50077      -10.12815       -3.96720
C          8.36590      -10.98299       -4.53498
C          8.02007      -11.88269       -5.63820
C          8.98126      -12.34031       -6.51987
N          8.74747      -13.24046       -7.49802
C          7.49993      -13.72347       -7.56552
N          6.46957      -13.33819       -6.79408
C          6.76423      -12.42691       -5.83951
C          7.26698      -14.76945       -8.54937
C          6.37814      -15.77415       -8.51555
C          6.14488      -16.47414       -9.84509
O          6.85398      -16.47766      -10.83208
C          4.85068      -17.06672       -9.65344
C          3.99491      -17.76783      -10.44625
S          2.56120      -18.17415       -9.61722
C          3.10298      -17.41483       -8.15563
C          4.35110      -16.88088       -8.33684
C          5.35108      -16.22237       -7.52958
C          5.43071      -16.24951       -6.17850
C          4.35351      -16.71163       -5.36881
N          3.47103      -17.07516       -4.70963
C          6.62428      -15.93804       -5.46658
N          7.59282      -15.74038       -4.85724
Cl         4.20156      -18.24900      -12.07675
H         10.08456        2.02782        7.94984
H          6.97552       -0.58575        3.57443
H          8.79573       -0.96911        1.01796
H          7.72584       -5.51908        2.73208
H          7.44369       -3.56696        4.19185
H          9.64785       -5.93784        0.24264
H          6.65981       -5.76769       -0.53273
H         10.14801      -12.81301        0.18378
H         11.55568      -12.98807        1.21541
H         11.71749      -12.52106       -1.81975
H         11.91952      -14.07761       -1.00228
H         13.08501      -12.76536       -0.73465
H          9.74259      -11.40717       -1.94697
H          6.49061      -10.02410       -4.35653
H          9.39722      -11.04641       -4.19706
H         10.01174      -11.99758       -6.46417
H          5.92582      -12.17198       -5.19679
H          7.89369      -14.63762       -9.43129
H          2.46061      -17.43904       -7.28550
