93

C          0.26254        0.22819        0.91582
C         -1.03636        0.65000        1.03332
S         -2.05566       -0.66560        1.50631
C         -0.74511       -1.75612        1.54675
Cl        -1.03084       -3.39850        1.94105
C          0.42960       -1.14686        1.22020
C          1.79317       -1.58753        1.09139
O          2.26351       -2.67416        1.36187
C          2.49275       -0.34509        0.53428
C          1.53105        0.81772        0.56481
C          1.79335        2.13516        0.39075
C          0.77481        3.12697        0.47454
N         -0.05702        3.93226        0.53790
C          3.10016        2.64298        0.14641
N          4.16656        3.04845       -0.05581
C          3.72287       -0.39586       -0.01013
C          4.61581       -1.55563       -0.09850
C          5.54745       -1.81614        0.90609
C          6.45310       -2.88289        0.75309
N          7.43475       -3.05246        1.81106
O          7.00454       -3.22969        2.95846
O          8.62997       -2.95955        1.49965
C          6.43829       -3.73030       -0.37092
C          5.51061       -3.41467       -1.37994
C          4.61088       -2.34959       -1.24649
C          7.32867       -4.89980       -0.53945
C          6.98947       -5.99235       -1.24314
C          7.80925       -7.15682       -1.39675
N          8.16967       -8.01236       -0.35643
C          7.78192       -7.89850        1.03647
C          6.49051       -8.63987        1.34554
C          8.88281       -9.13029       -0.83388
O          9.31316      -10.09055       -0.22775
C          8.94534       -8.88726       -2.29004
C          8.27574       -7.64272       -2.55006
C          8.32302       -7.39414       -3.99905
O          7.86816       -6.44000       -4.59584
N          9.00865       -8.52864       -4.48633
C          9.28114       -8.69825       -5.90016
C         10.59523       -8.05597       -6.31809
C          9.35135       -9.40702       -3.45260
C         10.03992      -10.65093       -3.67184
C          9.88714      -11.73796       -2.89844
C         10.60201      -12.97776       -3.07474
C         10.88946      -13.78904       -2.04167
C         11.63462      -15.03044       -2.28230
C         11.98264      -15.86148       -1.26536
C         12.71397      -17.06308       -1.49389
N         13.31617      -18.03174       -1.70523
C         11.64785      -15.58727        0.09849
N         11.37404      -15.35742        1.19621
C         11.98121      -15.31858       -3.68809
C         11.58999      -14.47503       -4.66160
O         10.92995      -13.28276       -4.38889
C         11.89976      -14.68015       -6.06419
C         11.18146      -14.29674       -7.13549
C         11.87233      -14.29345       -8.48977
O         12.89142      -14.86977       -8.81475
C         11.05187      -13.38423       -9.24788
C         11.07599      -12.90459      -10.52150
S          9.79771      -11.81033      -10.80724
C          9.15648      -12.02284       -9.21028
C          9.92701      -12.91462       -8.51440
C          9.85883      -13.62401       -7.26253
C          8.72946      -13.91169       -6.57501
C          7.52406      -13.18014       -6.76005
N          6.55997      -12.55028       -6.90256
C          8.64752      -15.08553       -5.77201
N          8.58157      -16.09143       -5.19693
Cl        12.16528      -13.28825      -11.78602
H         -1.48667        1.62302        0.87616
H          4.16892        0.46143       -0.50281
H          5.58825       -1.18771        1.79396
H          5.47322       -3.98869       -2.30463
H          3.91908       -2.14701       -2.06181
H          8.29685       -4.87250       -0.04289
H          6.03765       -6.05712       -1.76554
H          7.69201       -6.84720        1.32082
H          8.58655       -8.32520        1.64622
H          5.65329       -8.24080        0.76418
H          6.24570       -8.54170        2.40813
H          6.58099       -9.70656        1.11550
H          8.46777       -8.22684       -6.46396
H          9.27291       -9.76279       -6.15700
H         10.59945       -6.98398       -6.09435
H         10.75181       -8.17867       -7.39480
H         11.44396       -8.50943       -5.79644
H         10.74185      -10.67796       -4.50131
H          9.21755      -11.71402       -2.04042
H         10.59745      -13.50101       -1.03346
H         12.52706      -16.22266       -3.94315
H         12.87497      -15.14139       -6.23650
H          8.24831      -11.50244       -8.93459
