82

C          0.06633        0.60041        0.47896
C         -1.15192        1.22739        0.47554
S         -2.39150        0.12599        0.97617
C         -1.27733       -1.15130        1.16875
Cl        -1.83659       -2.69082        1.66951
C         -0.00886       -0.76436        0.85684
C          1.26487       -1.43075        0.80314
O          1.54106       -2.56027        1.15295
C          2.17167       -0.35798        0.19290
C          1.43422        0.95545        0.18959
C          1.94546        2.20505        0.08911
C          1.12295        3.36449        0.17728
N          0.44719        4.30741        0.24302
C          3.33996        2.45439       -0.04085
N          4.47849        2.64766       -0.14410
C          3.35439       -0.65841       -0.38200
C          3.98631       -1.98473       -0.41407
C          4.88256       -2.35314        0.59011
C          5.43839       -3.64423        0.57957
N          6.29978       -3.99944        1.69294
O          7.28625       -3.27637        1.89052
O          5.96259       -4.96443        2.39214
C          5.15515       -4.57613       -0.43244
C          4.28559       -4.17181       -1.45423
C          3.70030       -2.89413       -1.44064
C          5.69442       -5.94536       -0.46002
C          6.84410       -6.27819       -1.07410
C          7.44777       -7.58828       -1.07222
C          7.26460       -8.49863       -0.04758
S          8.12419       -9.95492       -0.28578
C          8.75000       -9.39654       -1.76842
C          8.31623       -8.12033       -2.09957
C          8.72277       -7.46805       -3.34325
O          8.76579       -6.25109       -3.48992
O          9.01792       -8.39390       -4.32026
C          9.44094       -7.81466       -5.50855
C          8.85758       -8.08115       -6.68248
C          9.32941       -7.50556       -7.94244
C          8.43806       -7.24520       -8.98453
C          8.91834       -6.71169      -10.19818
N          7.91756       -6.44605      -11.21920
O          6.99539       -5.67613      -10.92084
O          8.04851       -7.02904      -12.30806
C         10.28546       -6.44134      -10.41834
C         11.14705       -6.72275       -9.34865
C         10.68518       -7.24993       -8.14424
C         10.84846       -5.86729      -11.66372
C         12.15984       -5.64809      -11.87656
C         12.69180       -5.06018      -13.07567
C         12.61352       -5.55909      -14.31318
C         12.84319       -4.57642      -15.44421
O         13.46514       -3.53079      -15.42024
C         12.04439       -5.14704      -16.48755
C         11.65849       -4.74163      -17.72746
S         10.61436       -5.87226      -18.46479
C         10.68462       -6.94198      -17.10214
C         11.49921       -6.41543      -16.13710
C         11.98843       -6.80414      -14.84028
C         12.05811       -8.05270      -14.32853
C         11.40797       -9.15451      -14.95181
N         10.86874      -10.04801      -15.45792
C         12.88278       -8.37153      -13.20610
N         13.58234       -8.64379      -12.32499
Cl        12.07162       -3.29820      -18.55083
H         -1.42896        2.24159        0.21827
H          3.94023        0.08448       -0.91396
H          5.13250       -1.65688        1.38851
H          4.03446       -4.85656       -2.26317
H          3.00872       -2.62669       -2.23756
H          5.10066       -6.67972        0.08001
H          7.38022       -5.49841       -1.61464
H          6.67995       -8.38562        0.85517
H          9.42152      -10.03428       -2.33047
H         10.29243       -7.15985       -5.35811
H          7.99519       -8.74002       -6.72494
H          7.37481       -7.44059       -8.85560
H         12.21637       -6.54199       -9.40044
H         11.42127       -7.45754       -7.37046
H         10.13920       -5.58827      -12.44156
H         12.92728       -5.86205      -11.13874
H         13.14709       -4.07723      -12.91637
H         10.12143       -7.86686      -17.12416
