67

C          0.72227        0.18714        5.47545
C         -0.41232        0.64176        6.09513
S         -1.14307       -0.62620        7.02159
C          0.06811       -1.74123        6.57974
Cl        -0.01763       -3.35214        7.15409
C          0.99910       -1.17405        5.76121
C          2.19317       -1.64718        5.12043
O          2.76847       -2.70309        5.28906
C          2.60353       -0.45669        4.25185
C          1.73466        0.72797        4.59980
C          1.88488        2.02725        4.24217
C          0.98729        3.04437        4.68293
N          0.26277        3.87084        5.04048
C          2.95924        2.49184        3.43353
N          3.83867        2.85627        2.77573
C          3.52255       -0.56579        3.27159
C          4.18171       -1.76948        2.91160
S          5.66739       -2.22022        3.65850
C          5.78307       -3.51897        2.52053
N          4.75809       -3.56332        1.69020
N          3.84668       -2.55220        1.90541
C          6.92718       -4.36369        2.53657
C          7.04680       -5.37587        1.66091
C          8.20925       -6.25536        1.59179
N          8.12333       -7.35340        0.81666
N          9.18462       -8.20849        0.77313
C         10.28734       -7.90337        1.48475
N         10.38213       -6.78617        2.23684
N          9.31486       -5.94696        2.29826
C         11.39961       -8.85707        1.53572
C         12.71991       -8.41698        1.70699
C         13.75438       -9.34880        1.87657
N         15.08474       -8.81546        2.06614
O         15.72484       -8.53342        1.04615
O         15.48491       -8.70273        3.23129
C         13.54301      -10.73749        1.87949
C         12.22800      -11.16899        1.66421
C         11.18062      -10.24697        1.48720
C         14.60406      -11.70178        2.23311
C         14.74127      -12.94536        1.74419
C         15.75891      -13.85429        2.23294
C         17.09112      -13.67959        2.22107
C         17.91539      -14.58540        3.12657
O         17.59747      -15.64899        3.62155
C         19.12087      -13.82056        3.30150
C         20.27945      -14.00112        3.99336
S         21.34766      -12.68679        3.78822
C         20.25446      -11.86699        2.72398
C         19.11899      -12.61166        2.55290
C         17.94305      -12.56427        1.72019
C         17.80591      -11.85264        0.57791
C         18.66587      -10.76256        0.26145
N         19.36903       -9.87098        0.02657
C         16.91511      -12.25729       -0.45665
N         16.26038      -12.63053       -1.33934
Cl        20.75278      -15.33520        4.95714
H         -0.88756        1.61314        6.08650
H          3.75916        0.25214        2.60735
H          7.70985       -4.15983        3.26315
H          6.26248       -5.59802        0.94203
H         12.94225       -7.34980        1.73538
H         11.97857      -12.22920        1.67616
H         10.16742      -10.63311        1.36121
H         15.29336      -11.36131        3.00608
H         14.04684      -13.35735        1.01348
H         15.34539      -14.73623        2.73034
H         20.55256      -10.92125        2.29086
