94

C         12.61393       -2.00851       -4.66069
C         12.94035       -3.21528       -5.21519
S         14.00202       -2.97265       -6.55992
C         13.97491       -1.27462       -6.37166
Cl        14.93075       -0.29807       -7.40323
C         13.15602       -0.89265       -5.35263
C         12.72828        0.36663       -4.79267
O         13.01050        1.49695       -5.13679
C         11.73685       -0.08531       -3.71448
C         11.92015       -1.54440       -3.49163
C         11.75469       -2.23583       -2.34332
C         11.84567       -3.65527       -2.30297
N         11.86748       -4.81554       -2.29258
C         11.58520       -1.57124       -1.09823
N         11.51583       -1.03554       -0.07010
C         10.72635        0.75951       -3.41448
C          9.38579        0.53277       -2.79255
C          8.73315        1.51315       -2.01347
C          7.37941        1.34355       -1.50047
N          6.85029        2.26530       -0.66852
C          7.61179        3.34141       -0.36015
C          8.85452        3.54568       -0.91910
N          9.42353        2.64030       -1.74486
F          9.54274        4.66248       -0.64327
F          7.13222        4.20735        0.54392
C          6.57727        0.23466       -1.83847
C          7.20117       -0.78761       -2.59620
C          8.62756       -0.63963       -3.07706
N          9.03067       -1.70440       -3.79142
S          7.77905       -2.78285       -3.83924
N          6.64492       -1.95110       -2.97269
C          5.12134        0.18106       -1.62829
N          4.42368       -0.28810       -0.51775
C          5.00868       -0.88052        0.66930
C          4.12916       -1.92862        1.34556
C          3.03987       -0.02907       -0.64411
O          2.12967       -0.38630        0.07157
C          2.91662        0.72765       -1.89996
C          4.22950        0.69002       -2.48498
C          4.18557        1.33658       -3.78396
O          5.11497        1.36910       -4.56516
N          2.87583        1.86493       -3.82249
C          2.45347        2.82678       -4.83643
C          3.41890        3.03818       -5.99893
C          2.12140        1.49061       -2.66617
C          0.76053        1.98197       -2.45876
C         -0.17474        1.89008       -1.48658
C         -0.21007        1.16945       -0.20404
C         -0.93245       -0.02671       -0.00947
C         -0.81186       -0.80030        1.20833
N         -1.50759       -1.94438        1.37323
C         -2.32691       -2.32568        0.37663
C         -2.44294       -1.59740       -0.78694
N         -1.75116       -0.45292       -0.99806
F         -3.26896       -2.01751       -1.75498
F         -3.04161       -3.44600        0.55233
C          0.03135       -0.42437        2.26797
C          0.66411        0.85351        2.16245
C          0.49908        1.68920        0.91137
N          1.11565        2.88214        0.99132
S          1.90180        2.92587        2.44276
N          1.49208        1.44171        3.04589
C          0.38619       -1.41928        3.31618
C          0.78171       -1.28119        4.59033
C          1.63808       -2.41893        5.14618
O          1.60046       -3.60104        4.88898
C          2.59021       -1.68015        5.93793
C          3.78223       -1.96475        6.52889
S          4.53597       -0.55243        7.12696
C          3.22703        0.46045        6.61239
C          2.24298       -0.30451        6.05187
C          0.97519       -0.07612        5.41785
C          0.09399        0.93091        5.61422
C          0.40919        2.05022        6.42742
N          0.70782        2.96845        7.07568
C         -1.19998        0.93611        5.01262
N         -2.24074        0.93496        4.49026
Cl         4.58430       -3.47281        6.65514
H         12.66497       -4.22124       -4.92644
H         10.83385        1.79473       -3.76107
H          5.21572       -0.06757        1.37387
H          5.95743       -1.35065        0.39386
H          4.67427       -2.42940        2.14919
H          3.78846       -2.68241        0.62752
H          3.24535       -1.47634        1.80663
H          2.31551        3.78739       -4.32662
H          1.48749        2.50721       -5.24188
H          4.39029        3.40290       -5.64700
H          3.03106        3.78671       -6.69539
H          3.57708        2.10724       -6.55409
H          0.40844        2.59233       -3.29194
H         -1.11941        2.40934       -1.66492
H          0.43362       -2.43242        2.89913
H          3.29301        1.53366        6.73468
