83

C         -0.68316       -0.33977       -2.68379
C         -1.78474        0.23461       -2.10773
S         -2.85972       -0.99455       -1.52723
C         -1.83119       -2.24861       -2.05931
Cl        -2.26360       -3.87890       -1.76157
C         -0.70830       -1.75976       -2.65586
C          0.47574       -2.34632       -3.22845
O          0.68201       -3.50181       -3.53964
C          1.37858       -1.12799       -3.40668
C          0.53563        0.11149       -3.30666
C          0.80424        1.33989       -3.80448
C         -0.12204        2.41422       -3.69401
N         -0.88254        3.28538       -3.59970
C          1.99586        1.62182       -4.52971
N          2.97420        1.83098       -5.11820
C          2.72313       -1.19738       -3.39249
C          3.54203       -2.40535       -3.23793
C          3.87187       -2.84622       -1.95444
C          4.69023       -3.97814       -1.79824
N          4.96025       -4.40599       -0.43913
O          3.97918       -4.71453        0.25182
O          6.13302       -4.36083       -0.04775
C          5.20771       -4.68520       -2.89331
C          4.87533       -4.21667       -4.17363
C          4.05381       -3.08828       -4.34550
C          6.03498       -5.89731       -2.78414
C          7.37746       -5.85917       -2.72232
C          8.13334       -7.06191       -2.58228
S          8.48839       -7.63158       -0.99478
C          9.26484       -9.03755       -1.57741
C          9.29032       -9.10694       -2.95227
C          8.67208       -7.92476       -3.53005
N          8.60712       -7.77432       -4.90535
C          8.49530       -9.07316       -5.60138
C          9.68277       -9.96986       -5.22386
N          9.83294      -10.14618       -3.76552
C         10.51032      -11.22493       -3.19174
O         10.64762      -11.45117       -1.99746
O         11.06036      -12.10110       -4.06954
C          9.13737       -6.65570       -5.55739
C          9.11885       -6.35503       -6.86662
C          9.75149       -5.18341       -7.36798
S          9.31833       -4.57957       -8.93076
C         10.35393       -3.22786       -8.64322
N         11.00971       -3.32020       -7.50271
N         10.67734       -4.44866       -6.78146
C         10.41176       -2.17338       -9.59618
C         10.64638       -0.91064       -9.20690
C         10.73365        0.18770      -10.14492
C         10.44972        1.47748       -9.90248
C         11.04608        2.49764      -10.86696
O         11.46015        2.31861      -11.99562
C         11.06326        3.69105      -10.06511
C         11.56537        4.94671      -10.22545
S         11.29326        5.91378       -8.84643
C         10.47790        4.63030       -8.01466
C         10.43180        3.51167       -8.80184
C          9.88101        2.18197       -8.72256
C          8.88879        1.76261       -7.89537
C          8.42154        2.56920       -6.82169
N          8.05859        3.22691       -5.94522
C          8.17445        0.54292       -8.10351
N          7.56646       -0.43518       -8.27101
Cl        12.40175        5.60128      -11.56893
H         -2.04951        1.27399       -1.96219
H          3.33365       -0.29832       -3.37400
H          3.50601       -2.31489       -1.07751
H          5.24566       -4.73511       -5.05727
H          3.82553       -2.75156       -5.35555
H          5.48808       -6.83729       -2.74740
H          7.92139       -4.91904       -2.73058
H          9.65085       -9.74144       -0.85354
H          7.55560       -9.55746       -5.30208
H          8.44905       -8.96602       -6.68926
H         10.62435       -9.54284       -5.59188
H          9.53531      -10.94183       -5.70386
H         11.07671      -11.82764       -4.99539
H          9.63405       -5.97514       -4.86235
H          8.59121       -6.98764       -7.57022
H         10.21441       -2.40369      -10.63841
H         10.80110       -0.68764       -8.15076
H         11.18566       -0.07533      -11.10524
H         10.10000        4.80977       -7.01686
