81

C          0.93890        1.75980        1.33400
C         -0.11646        2.47071        1.84119
S         -0.43798        1.98433        3.47166
C          0.83417        0.84826        3.45757
Cl         1.10796       -0.12552        4.83994
C          1.49018        0.83966        2.26300
C          2.58906        0.08669        1.72055
O          3.33903       -0.67675        2.29497
C          2.58469        0.51012        0.24945
C          1.65408        1.68731        0.08217
C          1.56220        2.54900       -0.96025
C          0.64385        3.64188       -0.95638
N         -0.10466        4.52923       -0.95815
C          2.38280        2.45432       -2.11400
N          3.05810        2.35820       -3.05719
C          3.20311       -0.21133       -0.70496
C          4.01256       -1.42535       -0.52072
C          5.39176       -1.33565       -0.32305
C          6.14988       -2.51461       -0.20661
N          7.58684       -2.36916       -0.07219
O          8.17371       -1.78531       -0.99368
O          8.11365       -2.80160        0.96101
C          5.56701       -3.78956       -0.26629
C          4.18489       -3.85680       -0.48594
C          3.41779       -2.68917       -0.61959
C          6.30654       -5.05050       -0.11682
C          6.86936       -5.68038       -1.15939
C          7.57752       -6.91323       -1.02145
S          8.27689       -7.62034       -2.41953
C          8.94311       -8.95514       -1.55611
C          8.64771       -8.86705       -0.20482
C          7.83940       -7.70877        0.07985
C          9.12168       -9.79727        0.81112
O          8.80125       -9.72611        1.99432
C          9.69887       -9.88388       -2.32625
C          9.60362      -11.21509       -2.18236
C         10.35536      -12.14377       -3.03888
C         10.62552      -11.84361       -4.37661
C         11.37568      -12.73124       -5.15952
N         11.59839      -12.33271       -6.53845
O         10.59390      -12.12427       -7.23115
O         12.76901      -12.21164       -6.92166
C         11.85663      -13.95114       -4.65437
C         11.53146      -14.25652       -3.32273
C         10.78596      -13.37198       -2.52901
C         12.72603      -14.86475       -5.41749
C         12.69330      -16.20506       -5.33326
C         13.59179      -17.04892       -6.08353
C         13.71796      -17.14010       -7.41709
C         14.95900      -17.86955       -7.91660
O         15.72054      -18.57967       -7.28902
C         15.03050      -17.45072       -9.28730
C         15.87732      -17.71306      -10.32054
S         15.39644      -16.91215      -11.74632
C         14.01248      -16.21343      -10.97361
C         13.95898      -16.59519       -9.65931
C         13.03207      -16.46096       -8.55836
C         11.76036      -16.00376       -8.64149
C         11.30006      -15.26137       -9.76637
N         10.94111      -14.64136      -10.67902
C         10.76126      -16.31633       -7.67651
N          9.91795      -16.60737       -6.93380
Cl        17.26057      -18.72269      -10.33964
H         -0.74190        3.23236        1.39474
H          3.10322        0.02939       -1.75805
H          5.87959       -0.36445       -0.27041
H          3.68871       -4.82397       -0.56040
H          2.34985       -2.78453       -0.80980
H          6.35635       -5.43257        0.90090
H          6.79836       -5.24453       -2.15521
H          7.50350       -7.47232        1.08406
H          9.80882      -10.59045        0.47747
H         10.33769       -9.45714       -3.09680
H          8.95875      -11.67284       -1.43564
H         10.26053      -10.91934       -4.82158
H         11.87023      -15.18572       -2.86680
H         10.57032      -13.65317       -1.49933
H         13.45896      -14.39161       -6.06770
H         12.01063      -16.72468       -4.66283
H         14.26586      -17.62637       -5.44458
H         13.34295      -15.60167      -11.56313
