101

C          4.22249        2.38256        2.07844
C          3.39133        3.18481        2.81479
S          3.02804        2.43897        4.33394
C          3.97904        1.07143        3.96896
Cl         4.08384       -0.20886        5.10153
C          4.55506        1.17210        2.73824
C          5.40671        0.32162        1.95297
O          5.91278       -0.73639        2.26912
C          5.50205        1.08233        0.62764
C          4.86437        2.43705        0.78741
C          4.94569        3.50786       -0.03556
C          4.30456        4.74090        0.26868
N          3.77610        5.74638        0.51488
C          5.69841        3.51141       -1.23685
N          6.31432        3.50723       -2.21986
C          5.96516        0.50545       -0.49551
C          6.51638       -0.84448       -0.62271
C          7.88392       -1.05975       -0.46560
C          8.40557       -2.34763       -0.66612
N          9.84376       -2.48321       -0.53487
O         10.53829       -1.83266       -1.32838
O         10.27199       -3.20206        0.37686
C          7.59592       -3.44525       -1.00844
C          6.22403       -3.18778       -1.17979
C          5.68875       -1.90940       -0.98253
C          8.11830       -4.80325       -1.25409
C          7.42093       -5.91934       -0.98771
C          7.91821       -7.24527       -1.19553
N          7.88417       -8.24318       -0.21844
C          7.40090       -8.08673        1.14167
C          8.45812       -7.55626        2.09615
C          8.35608       -9.47499       -0.72226
O          8.45532      -10.55990       -0.18511
C          8.65614       -9.14902       -2.12898
C          8.37235       -7.76070       -2.33860
C          8.62189       -7.44873       -3.75481
O          8.51080       -6.37038       -4.30033
N          8.99480       -8.70267       -4.28528
C          9.41489       -8.84157       -5.66350
C         10.91130       -8.63685       -5.81942
C          9.01674       -9.68455       -3.29514
C          9.26720      -11.07924       -3.48650
C          8.55777      -11.83049       -4.33504
C          8.56073      -13.24990       -4.32268
S          8.29667      -14.04369       -5.81146
C          8.06173      -15.58381       -5.07840
C          8.09399      -15.45109       -3.69704
C          8.65479      -14.17443       -3.29343
C          9.07236      -13.93199       -1.86344
F         10.30567      -13.35098       -1.80792
C          9.15876      -15.23708       -1.07197
F         10.18317      -16.00496       -1.55736
C          7.86804      -16.01453       -1.23078
F          7.89748      -17.09832       -0.40049
C          7.69207      -16.49314       -2.67898
F          6.36278      -16.78478       -2.84417
C          7.79531      -16.73752       -5.88208
C          8.34755      -16.87463       -7.09984
C          8.09986      -17.97952       -7.99566
C          8.60096      -18.14087       -9.23322
C          7.86064      -19.13475      -10.11920
O          7.10803      -20.02909       -9.78624
C          8.21320      -18.68660      -11.43848
C          7.87646      -19.07207      -12.69960
S          8.64803      -18.11196      -13.87902
C          9.46814      -17.16706      -12.68064
C          9.13336      -17.60410      -11.42681
C          9.53658      -17.32899      -10.06899
C         10.66345      -16.68143       -9.68939
C         11.41099      -15.87815      -10.59514
N         11.99721      -15.18981      -11.32585
C         11.23913      -16.83851       -8.39450
N         11.72878      -16.98479       -7.35238
Cl         6.84076      -20.34617      -13.18517
H          2.95637        4.15100        2.59483
H          5.93882        1.00373       -1.45874
H          8.54676       -0.23636       -0.20742
H          5.54310       -3.97693       -1.49426
H          4.62195       -1.75887       -1.13432
H          9.13118       -4.87754       -1.64828
H          6.41206       -5.87438       -0.58804
H          7.05887       -9.06401        1.50029
H          6.52748       -7.42637        1.14166
H          9.32889       -8.21837        2.13262
H          8.04522       -7.48092        3.10804
H          8.80206       -6.56084        1.79799
H          8.88975       -8.08575       -6.25940
H          9.11993       -9.81516       -6.06098
H         11.20642       -7.63777       -5.48251
H         11.20032       -8.74457       -6.86907
H         11.47323       -9.36897       -5.23081
H          9.95797      -11.51397       -2.77432
H          7.85218      -11.35458       -5.01464
H          8.35889      -13.24912       -1.38842
H          9.39434      -15.04030       -0.02235
H          7.01362      -15.40514       -0.91265
H          8.23865      -17.42638       -2.83998
H          7.15415      -17.51256       -5.47052
H          8.98932      -16.08364       -7.46861
H          7.34206      -18.68489       -7.64507
H         10.14301      -16.38534      -13.00364
