96

C          3.77203        3.51924        1.10260
C          3.63000        4.82463        1.49438
S          4.67245        5.16728        2.83388
C          5.28027        3.57451        2.85678
Cl         6.46954        3.14280        4.01117
C          4.71308        2.80383        1.88617
C          4.86348        1.43622        1.47233
O          5.54090        0.56414        1.97720
C          3.96236        1.35538        0.23680
C          3.20191        2.65277        0.09683
C          2.14701        2.93221       -0.70629
C          1.49462        4.19859       -0.68563
N          0.96105        5.22835       -0.66936
C          1.57255        1.98305       -1.59547
N          1.10791        1.19972       -2.31470
C          3.98503        0.29393       -0.59196
C          4.72349       -0.95898       -0.41384
C          4.18716       -2.04882        0.24842
N          4.79590       -3.25066        0.37093
C          6.00876       -3.35205       -0.19376
N          6.62590       -2.35015       -0.84986
C          5.96784       -1.18013       -0.95947
C          6.72637       -4.62734       -0.11867
N          6.70030       -5.58487        0.91527
C          5.94513       -5.53251        2.15239
C          4.56533       -6.17106        2.06094
C          7.61044       -6.63415        0.66298
O          7.88517       -7.60913        1.33319
C          8.18012       -6.26588       -0.64091
C          7.58305       -5.03087       -1.06290
C          8.16001       -4.67150       -2.37346
O          7.89104       -3.72905       -3.09008
N          9.06662       -5.72453       -2.60793
C          9.86866       -5.79065       -3.81420
C         11.21003       -5.09649       -3.64878
C          9.06329       -6.64382       -1.56173
C          9.91882       -7.78499       -1.54055
C          9.48639       -9.05344       -1.47027
C         10.36704      -10.27532       -1.52938
C         11.86945      -10.01810       -1.66488
O         12.53175       -9.19436       -1.05556
O         12.41097      -10.88712       -2.56897
C         11.42170      -11.84098       -2.96856
C         10.10665      -11.10521       -2.78873
C          8.88500      -12.02057       -2.76764
C          9.05683      -13.29001       -1.93699
C         10.38521      -14.02067       -2.11532
C         11.58674      -13.10446       -2.11126
O         12.65199      -13.92562       -2.61378
C         12.14687      -14.97722       -3.31965
O         12.82908      -15.81396       -3.89124
C         10.63610      -14.93653       -3.32852
C          9.95535      -14.61281       -4.63843
C         10.25104      -14.80551       -5.94212
C          9.00814      -14.86551       -6.84361
O          7.94235      -14.30092       -6.69046
C          9.39978      -15.83352       -7.82982
C          8.76290      -16.48562       -8.84024
S          9.80113      -17.58404       -9.63149
C         11.14206      -17.16770       -8.61422
C         10.76230      -16.21081       -7.71096
C         11.39499      -15.40677       -6.68895
C         12.69553      -15.03226       -6.69574
C         13.66542      -15.68597       -7.51098
N         14.44858      -16.21440       -8.18549
C         13.12961      -13.84216       -6.04169
N         13.44595      -12.82946       -5.58504
Cl         7.13441      -16.33531       -9.34813
H          3.00322        5.61935        1.11216
H          3.42578        0.27676       -1.52137
H          3.20345       -1.99890        0.70634
H          6.49170       -0.42038       -1.53345
H          5.87889       -4.50018        2.50614
H          6.51135       -6.08940        2.91031
H          3.92177       -5.63974        1.35508
H          4.07639       -6.15059        3.04198
H          4.62472       -7.21713        1.74173
H          9.31537       -5.29630       -4.62169
H         10.00595       -6.83524       -4.11485
H         11.07904       -4.05579       -3.33491
H         11.76042       -5.10270       -4.59476
H         11.82377       -5.59836       -2.89464
H         10.97633       -7.54572       -1.61441
H          8.41540       -9.23704       -1.37910
H         10.21814      -10.87405       -0.62364
H         11.57863      -12.05982       -4.02588
H          9.98545      -10.41100       -3.63517
H          8.64705      -12.29549       -3.80054
H          8.00512      -11.47461       -2.40685
H          8.22083      -13.97520       -2.12024
H          8.97654      -13.00126       -0.88003
H         10.48625      -14.67933       -1.23695
H         11.85287      -12.83497       -1.08180
H         10.28564      -15.93678       -3.03922
H          8.90996      -14.34694       -4.45544
H         12.09496      -17.65202       -8.77317
