75

C         -0.13518       -3.07282        3.67142
C         -0.99419       -3.65036        4.56381
S         -0.24256       -3.75458        6.12300
C          1.20272       -3.04481        5.55754
Cl         2.53989       -2.87648        6.61294
C          1.12607       -2.73972        4.23406
C          2.04648       -2.21879        3.26157
O          3.08390       -1.61293        3.43215
C          1.32237       -2.52668        1.95952
C         -0.13308       -2.75511        2.26633
C         -1.20009       -2.59879        1.45220
C         -2.53557       -2.81630        1.91082
N         -3.61417       -3.00088        2.29272
C         -1.05579       -2.14506        0.10580
N         -0.89927       -1.78590       -0.97811
C          1.96641       -2.88054        0.83077
C          3.37410       -3.12745        0.75433
S          3.89316       -4.69907        1.23798
C          5.54691       -4.44827        0.81597
C          5.67094       -3.18905        0.23704
C          4.46190       -2.39385        0.30684
O          4.49536       -1.06805       -0.00087
C          3.30812       -0.47619       -0.48825
O          6.87064       -2.76455       -0.24926
C          6.78209       -2.09731       -1.50683
C          6.53842       -5.54290        1.06232
C          7.84117       -5.53200        0.52200
C          8.77005       -6.57245        0.73597
C          8.30908       -7.62089        1.53595
N          7.08099       -7.69172        2.09784
C          6.24356       -6.65492        1.85571
C         10.16389       -6.52829        0.20651
S         11.15807       -7.92683        0.28636
C         12.62372       -7.07983       -0.10002
C         12.30217       -5.79432       -0.51682
C         10.88007       -5.54330       -0.45728
O         10.27697       -4.40344       -0.88664
C         10.60529       -4.08677       -2.23904
O         13.12748       -4.78972       -0.92302
C         14.50962       -5.03837       -1.06255
C         13.85005       -7.82121       -0.08621
C         14.22096       -8.68678        0.87600
C         15.07388       -9.84051        0.36740
O         15.90192       -9.83662       -0.52179
C         14.53285      -10.94147        1.12178
C         14.57205      -12.29708        1.00344
S         13.57634      -13.05923        2.16227
C         13.04886      -11.54569        2.82011
C         13.65069      -10.51457        2.15339
C         13.57416       -9.07902        2.15936
C         13.10901       -8.26352        3.13201
C         12.45625       -8.77728        4.28720
N         11.90299       -9.21731        5.20717
C         13.26128       -6.84850        3.06690
N         13.40701       -5.69813        3.01837
Cl        15.38629      -13.24373       -0.16890
H         -1.99072       -4.04999        4.42861
H          1.41151       -3.22489       -0.03771
H          3.55330        0.55174       -0.77422
H          2.53988       -0.40730        0.28445
H          2.94561       -0.99415       -1.38127
H          6.20201       -2.67374       -2.23759
H          7.79764       -1.98901       -1.90047
H          6.38023       -1.08663       -1.40390
H          8.14590       -4.68224       -0.07436
H          8.92712       -8.47756        1.78928
H          5.28880       -6.77040        2.36089
H         11.58773       -3.61262       -2.30989
H          9.87202       -3.36111       -2.60132
H         10.55591       -4.96748       -2.89145
H         14.99431       -4.07429       -1.24954
H         14.69662       -5.66914       -1.93649
H         14.96028       -5.44540       -0.15397
H         14.42133       -7.79992       -1.01462
H         12.31309      -11.53761        3.61375
