83

C          6.90299        3.08775       -1.67339
C          7.03712        4.32925       -2.23852
S          5.50175        4.91139       -2.78917
C          4.70142        3.50337       -2.26076
Cl         3.01433        3.34325       -2.51014
C          5.56441        2.62388       -1.68092
C          5.41580        1.32369       -1.09417
O          4.39186        0.68979       -0.94019
C          6.85733        0.95137       -0.72760
C          7.77382        2.09871       -1.07181
C          9.10944        2.20805       -0.88387
C          9.83642        3.37258       -1.27061
N         10.42795        4.31648       -1.58698
C          9.90235        1.18560       -0.29549
N         10.55327        0.35082        0.18004
C          7.14246       -0.26733       -0.23576
C          6.15728       -1.33108       -0.05688
N          6.04161       -2.18319       -1.07009
C          5.09236       -3.10688       -0.90986
N          4.31432       -3.20880        0.16606
C          4.55488       -2.31227        1.11936
N          5.47576       -1.35360        1.07892
C          4.87291       -4.06306       -2.00423
N          5.07893       -3.81627       -3.37785
C          5.51826       -2.58341       -3.99914
C          4.37454       -1.62338       -4.28193
C          4.73403       -4.93306       -4.16257
O          4.76356       -5.07771       -5.36722
C          4.32015       -5.91868       -3.15805
C          4.43930       -5.32293       -1.85354
C          4.03853       -6.35084       -0.86580
O          4.02453       -6.25880        0.34405
N          3.71591       -7.46187       -1.68022
C          3.24467       -8.72265       -1.13523
C          1.72983       -8.78456       -1.01355
C          3.87327       -7.16619       -3.03115
C          3.59680       -8.10068       -4.07777
C          2.69002       -7.87462       -5.04103
C          2.38343       -8.83108       -6.10279
N          1.45123       -8.45093       -6.98938
C          1.17468       -9.33129       -7.96328
C          1.78257      -10.55901       -8.06668
C          2.72038      -10.85451       -7.09763
N          3.02556      -10.01123       -6.09858
C          3.42950      -12.13642       -7.04802
C          3.72959      -12.86458       -8.13322
C          4.43021      -14.12036       -8.08191
C          5.68253      -14.35858       -7.66319
C          6.02390      -15.82665       -7.44636
O          5.40797      -16.80767       -7.81578
C          7.21031      -15.75015       -6.64462
C          8.03110      -16.67270       -6.07195
S          9.32145      -15.93348       -5.23983
C          8.77985      -14.34307       -5.66487
C          7.63400      -14.41408       -6.41208
C          6.77757      -13.49398       -7.12846
C          7.04958      -12.19484       -7.39859
C          8.09614      -11.49253       -6.73464
N          8.93954      -10.92747       -6.17239
C          6.40146      -11.46510       -8.43543
N          5.93420      -10.87739       -9.32074
Cl         7.91678      -18.38087       -6.11965
H          7.90677        4.95451       -2.38784
H          8.13570       -0.60924        0.01403
H          3.93885       -2.36735        2.01110
H          5.99494       -2.83658       -4.95407
H          6.29445       -2.10421       -3.40048
H          3.66110       -2.06206       -4.98776
H          4.76113       -0.69945       -4.72458
H          3.82991       -1.36409       -3.36917
H          3.68510       -8.85260       -0.14040
H          3.60652       -9.54991       -1.75552
H          1.34656       -7.96700       -0.39479
H          1.42753       -9.73118       -0.55305
H          1.24837       -8.71856       -1.99449
H          4.15739       -9.03202       -4.05491
H          2.11906       -6.95180       -5.07901
H          0.42360       -9.01736       -8.68051
H          1.52302      -11.23963       -8.86332
H          3.72381      -12.45282       -6.05023
H          3.42912      -12.54757       -9.13093
H          3.80882      -14.96012       -8.40458
H          9.36720      -13.49380       -5.34303
