86

C          3.64592        2.87394       -4.19742
C          3.14492        4.11698       -3.90601
S          4.08933        4.87038       -2.66241
C          5.12811        3.52404       -2.54042
Cl         6.41371        3.54463       -1.40868
C          4.77134        2.53174       -3.40390
C          5.27320        1.21234       -3.67612
O          6.24207        0.66288       -3.19197
C          4.26899        0.67641       -4.70272
C          3.33863        1.79442       -5.10900
C          2.48507        1.83218       -6.15904
C          1.69211        2.98250       -6.44080
N          1.04623        3.91512       -6.66389
C          2.34203        0.76220       -7.08736
N          2.22941       -0.11161       -7.83964
C          4.20220       -0.62692       -5.03735
C          5.08600       -1.70364       -4.58196
C          6.25587       -2.01558       -5.27877
C          7.10018       -3.02813       -4.79347
N          8.33991       -3.25352       -5.51516
O          8.24612       -3.60829       -6.69761
O          9.40055       -3.04191       -4.91034
C          6.76767       -3.80225       -3.67071
C          5.56675       -3.48349       -3.01146
C          4.73656       -2.45271       -3.45819
C          7.60374       -4.90263       -3.16096
C          7.08687       -5.95771       -2.51366
C          7.90662       -6.99152       -2.00114
S          7.38129       -7.83149       -0.60726
C          8.74406       -8.86807       -0.60451
C          9.59711       -8.56098       -1.64583
C          9.11596       -7.48572       -2.44661
C          8.91481       -9.89753        0.38955
C         10.10246      -10.42356        0.85837
C          9.89967      -11.43489        1.84770
C          8.56154      -11.67347        2.09531
S          7.57692      -10.65530        1.13773
C          7.99113      -12.60749        3.03493
S          6.46935      -13.34757        2.76930
C          6.51382      -14.20674        4.25467
C          7.69284      -13.94368        4.92772
C          8.54125      -13.03311        4.22695
C          5.40663      -15.04380        4.56840
C          5.54628      -16.13361        5.33693
C          4.47803      -17.05998        5.49565
S          4.86431      -18.70615        5.76961
C          3.23556      -19.20636        5.61611
C          3.00868      -20.63332        5.57592
O          1.91838      -21.18782        5.68405
C          2.37706      -18.12333        5.53897
C          3.10483      -16.89600        5.42995
C          0.95586      -18.20024        5.37465
C         -0.00051      -18.27951        6.31662
C         -1.35877      -18.78400        5.82821
O         -1.82552      -18.73587        4.70634
C         -1.88941      -19.40723        7.01055
C         -3.00349      -20.13495        7.30163
S         -2.98847      -20.68982        8.91549
C         -1.48275      -19.90493        9.24968
C         -1.04377      -19.23417        8.14040
C          0.05960      -18.36586        7.80105
C          0.81344      -17.65780        8.67498
C          0.80793      -17.95741       10.07012
N          0.83711      -18.24216       11.19274
C          1.60017      -16.53219        8.31058
N          2.21154      -15.56083        8.09104
Cl        -4.32527      -20.53253        6.28782
H          2.30036        4.66056       -4.31007
H          3.41624       -1.01930       -5.67272
H          6.51408       -1.48538       -6.19259
H          5.25164       -4.02918       -2.12354
H          3.81493       -2.25664       -2.91440
H          8.67829       -4.82745       -3.31275
H          6.01857       -6.04529       -2.33591
H         10.51845       -9.09156       -1.84804
H          9.62666       -7.10715       -3.32387
H         11.07817      -10.09221        0.52394
H         10.70579      -11.96405        2.34063
H          7.94054      -14.36942        5.89230
H          9.49759      -12.68933        4.60166
H          4.45581      -14.82148        4.08902
H          6.51427      -16.39199        5.75922
H          3.91647      -21.25646        5.42988
H          2.63708      -15.92594        5.29301
H          0.63903      -18.29206        4.33257
H         -1.04652      -20.00082       10.23479
