92

C          4.04288        3.23951        1.62921
C          3.68694        4.30251        2.41735
S          4.68491        4.35915        3.83485
C          5.56395        2.97922        3.35852
Cl         6.80089        2.36001        4.36779
C          5.12121        2.49386        2.16530
C          5.49425        1.37932        1.34542
O          6.49624        0.70060        1.43521
C          4.36215        1.34473        0.31138
C          3.61860        2.65672        0.38008
C          2.85330        3.23318       -0.57423
C          2.29753        4.54265       -0.40655
N          1.85730        5.60063       -0.26093
C          2.61317        2.62094       -1.83491
N          2.42322        2.10942       -2.85835
C          4.02165        0.22084       -0.35094
C          4.70374       -1.06485       -0.30489
C          5.99626       -1.17466       -0.65985
C          6.71823       -2.41257       -0.49592
C          6.09762       -3.60413       -0.43464
C          4.57874       -3.64631       -0.46686
C          3.96640       -2.32692        0.14626
N          2.50445       -2.23250       -0.07398
C          2.09160       -2.79861       -1.15727
C          2.99914       -3.44808       -2.15867
N          4.18864       -3.86128       -1.88273
F          2.55129       -3.59730       -3.41104
F          0.77579       -2.80062       -1.40222
C          6.82035       -4.84852       -0.30051
N          7.75775       -5.31620       -1.23662
C          8.18549       -4.64246       -2.44737
C          9.44989       -3.81979       -2.23746
C          8.26395       -6.58355       -0.88252
O          9.07326       -7.29828       -1.43909
C          7.56701       -6.85928        0.37867
C          6.69704       -5.75578        0.67742
C          5.99940       -6.07404        1.94348
O          5.17639       -5.38724        2.51461
N          6.52194       -7.34132        2.28440
C          6.17263       -8.04356        3.51147
C          4.95242       -8.94264        3.37080
C          7.43110       -7.78548        1.32293
C          8.07066       -9.06186        1.34848
C          7.36880      -10.20324        1.33208
C          7.93642      -11.53336        1.38783
N          7.06791      -12.54977        1.51278
C          7.59956      -13.77923        1.45068
C          8.94345      -14.00861        1.27361
C          9.74132      -12.88777        1.16861
N          9.25959      -11.64147        1.24682
C         11.17660      -13.00817        0.90880
C         11.89169      -12.05021        0.29352
C         13.29812      -12.22115        0.01327
C         14.14412      -11.37531       -0.59500
C         15.62371      -11.67934       -0.39175
O         16.14562      -12.73572       -0.09108
C         16.22051      -10.38381       -0.55721
C         17.48291       -9.88906       -0.43440
S         17.52853       -8.20913       -0.72254
C         15.82765       -8.14256       -1.04991
C         15.27640       -9.38980       -0.93663
C         13.98990      -10.00638       -1.15915
C         12.99259       -9.52234       -1.93953
C         12.98118       -8.16689       -2.38603
N         13.00198       -7.06121       -2.72400
C         11.98970      -10.36631       -2.49164
N         11.21669      -11.07278       -3.00385
Cl        18.92661      -10.72519       -0.04712
H          2.91713        5.05145        2.29299
H          3.12164        0.19245       -0.96041
H          6.58047       -0.31748       -0.98568
H          7.79260       -2.31408       -0.41478
H          4.19986       -4.49787        0.11211
H          4.10282       -2.39433        1.23587
H          7.37140       -4.02425       -2.83828
H          8.39828       -5.40528       -3.20600
H          9.34073       -3.08545       -1.43908
H          9.70714       -3.27702       -3.15147
H         10.29505       -4.45664       -1.95959
H          5.95548       -7.29452        4.28170
H          7.03948       -8.61475        3.86579
H          4.08378       -8.37848        3.02251
H          4.71644       -9.41985        4.32576
H          5.09663       -9.75361        2.66162
H          9.15817       -9.07401        1.33127
H          6.29326      -10.20105        1.24387
H          6.88927      -14.59762        1.52163
H          9.33411      -15.01136        1.18067
H         11.63293      -13.94267        1.21606
H         11.39938      -11.12325        0.01013
H         13.72025      -13.13902        0.43167
H         15.38093       -7.19264       -1.31128
