72

C         -1.27249        1.20374       -0.00186
C         -2.21173        0.18880        0.00006
S         -1.48908       -1.37512        0.00261
C          0.05562       -0.71298        0.00113
C          0.03446        0.66760       -0.00160
C          1.38023        1.21296       -0.00418
O          1.71944        2.38063       -0.00618
C          2.26595       -0.01761       -0.00492
C          1.38693       -1.22787        0.00099
C          1.75307       -2.52776        0.00704
C          0.86191       -3.63419        0.01420
N          0.16217       -4.55960        0.02029
C          3.23340       -2.87273        0.00716
N          4.46146       -3.15892        0.00725
C          3.60405        0.09293       -0.01289
C          4.42129       -1.18867       -0.01801
C          5.12231       -2.28802       -0.02241
C          5.93955       -3.56962       -0.02753
C          6.64058       -4.66898       -0.03193
C          7.45782       -5.95058       -0.03706
N          6.93664       -7.24076       -0.02087
C          5.52640       -7.56814       -0.01478
C          4.94396       -7.70778       -1.41450
C          7.96071       -8.21624       -0.02335
O          7.88119       -9.42815       -0.02535
C          9.20004       -7.40464       -0.04294
C          8.79013       -6.02074       -0.04119
C          9.99254       -5.18807       -0.06245
O         10.02063       -3.97456       -0.06659
N         11.03896       -6.14851       -0.11167
C         12.43601       -5.75637       -0.23433
C         12.74330       -4.97155       -1.50543
C         10.53954       -7.46936       -0.09155
C         11.39208       -8.65563       -0.09824
C         11.05539       -9.83522       -0.65385
C         11.88080      -11.01072       -0.69673
C         12.46411      -12.06125       -0.81938
C         13.15700      -13.44632       -1.03773
C         13.69011      -14.51558       -1.21365
C         14.36445      -15.77898       -1.36976
C         14.37810      -16.53595       -2.48376
C         15.06705      -17.85031       -2.78885
C         15.85506      -18.64481       -2.02249
C         16.44352      -19.87538       -2.47028
N         16.94102      -20.87910       -2.79386
C         16.17093      -18.31390       -0.67906
N         16.43470      -18.04897        0.42050
C         14.71374      -18.13398       -4.15337
C         13.90071      -17.16893       -4.70096
C         13.54013      -17.42816       -6.04300
C         14.10943      -18.60910       -6.47881
S         15.05510      -19.36418       -5.25556
C         13.61605      -16.11687       -3.74804
O         12.92167      -15.13891       -3.94061
H         -1.52022        2.25856       -0.00384
H         -3.29007        0.28044       -0.00006
H          4.13314        1.04084       -0.01763
H          4.98807       -6.78997        0.53506
H          5.38976       -8.51015        0.53129
H          5.03037       -6.76708       -1.96883
H          3.87906       -7.96398       -1.35828
H          5.45926       -8.48879       -1.98606
H         13.06830       -6.64550       -0.23512
H         12.70922       -5.15638        0.64161
H         12.48519       -5.55558       -2.39427
H         13.81133       -4.73024       -1.56242
H         12.19152       -4.02775       -1.54553
H         12.36790       -8.56541        0.37679
H         10.08330       -9.94722       -1.12514
H         14.90065      -16.08727       -0.48000
H         12.90770      -16.79681       -6.65558
H         14.02017      -19.07063       -7.45398
