74

C          0.88512       -2.21942       -1.12027
N          0.23719       -1.97893       -2.24444
C         -1.09622       -1.71118       -1.96960
C         -1.45661       -1.79168       -0.64271
S         -0.09295       -2.19810        0.29879
C         -2.75705       -1.57654       -0.10910
N         -3.81698       -1.40333        0.33001
C          2.29835       -2.52004       -1.08823
S          3.28462       -2.16475        0.27217
C          4.68928       -2.83835       -0.44725
C          4.41952       -3.27813       -1.72986
C          3.05001       -3.08960       -2.09944
C          5.40307       -3.87287       -2.59028
N          6.16955       -4.36828       -3.30261
C          5.91257       -2.84036        0.27718
C          6.22634       -3.86456        1.08416
C          7.47948       -3.96017        1.77736
N          7.58404       -4.08581        3.16320
C          6.49567       -4.02057        4.11864
C          6.20536       -2.59997        4.57910
C          8.92887       -4.21234        3.57209
O          9.39930       -4.31869        4.68677
C          9.65782       -4.19392        2.29213
C          8.70202       -4.00706        1.23756
C          9.43830       -3.98824       -0.04030
O          8.97023       -3.86473       -1.15061
N         10.77831       -4.17525        0.36510
C         11.86436       -4.30786       -0.59229
C         12.48638       -2.98175       -1.00808
C         10.86872       -4.31690        1.74895
C         12.09272       -4.57037        2.43853
C         12.32063       -5.66411        3.18280
N         13.47608       -5.86840        3.89642
C         13.67169       -7.01562        4.68264
C         12.74372       -8.17324        4.80201
C         14.84692       -6.89651        5.31298
C         15.45514       -5.65945        4.93041
C         14.56673       -4.96046        4.00314
O         14.78052       -3.87663        3.50597
C         16.62826       -5.52942        5.55279
C         17.53841       -4.35728        5.44708
N         16.80978       -6.65335        6.36430
C         15.74343       -7.57171        6.26068
O         15.53902       -8.67115        6.74275
C         17.93999       -6.83720        7.13755
N         19.07659       -6.18807        7.01355
C         19.98532       -6.64255        7.95160
C         19.50320       -7.58606        8.82483
S         17.89124       -7.96220        8.43558
C         20.22780       -8.17404        9.89546
N         20.82262       -8.64011       10.76958
H         -1.76591       -1.46434       -2.78697
H          2.63351       -3.37978       -3.05916
H          6.59704       -2.00874        0.12793
H          5.53990       -4.69664        1.23076
H          6.77500       -4.62158        4.99162
H          5.59686       -4.47405        3.68869
H          7.11127       -2.10257        4.94089
H          5.47372       -2.60986        5.39378
H          5.79424       -1.99685        3.76327
H         11.45717       -4.78999       -1.48824
H         12.63558       -4.97511       -0.19264
H         11.72918       -2.26483       -1.34058
H         13.18523       -3.14204       -1.83767
H         13.04689       -2.52721       -0.18505
H         12.83456       -3.78551        2.32423
H         11.55694       -6.43509        3.25261
H         12.60042       -8.66267        3.83305
H         11.77082       -7.86597        5.19676
H         13.14140       -8.93256        5.48609
H         17.13444       -3.59786        4.76897
H         18.51516       -4.64669        5.04889
H         17.66733       -3.87716        6.42205
H         20.99019       -6.23323        7.95280
