98

C         -0.98087       -1.82767       -5.35587
C         -2.31597       -2.05856       -5.35240
C         -3.17141       -0.89379       -5.10068
C         -4.41834       -0.60969       -5.54542
C         -5.06290       -1.38794       -6.54938
N         -5.56710       -1.96780       -7.41588
C         -5.10969        0.56981       -5.13156
N         -5.67304        1.51522       -4.76525
S         -2.17981        0.30095       -4.29432
C         -0.73504       -0.40238       -5.00166
O          0.31301        0.19883       -5.14240
C         -2.88208       -3.36670       -5.46027
N         -3.33419       -4.42781       -5.50068
C          0.13547       -2.71486       -5.68077
C          0.29471       -3.42969       -6.83949
N         -0.58428       -3.42526       -8.00146
O         -1.63266       -2.77231       -7.95695
O         -0.20459       -4.06293       -8.99262
C          1.59751       -4.03524       -6.94178
C          2.31513       -3.66921       -5.88108
C          1.48208       -2.88597       -4.97040
C          1.97551       -2.43213       -3.78674
C          1.30789       -1.53971       -2.84001
C          2.22664       -1.07848       -1.97477
C          3.48074       -1.75064       -2.22774
N          4.65488       -1.56742       -1.39597
O          5.48043       -2.48519       -1.30475
O          4.74318       -0.48582       -0.79790
C          3.37322       -2.63712       -3.24135
C          4.40446       -3.58102       -3.63066
C          4.26080       -4.91528       -3.56096
C          5.28928       -5.84243       -3.95049
N          5.72096       -6.89285       -3.13870
C          5.13948       -7.28396       -1.87128
C          4.05502       -8.33581       -2.06638
C          6.67712       -7.70324       -3.79055
O          7.20656       -8.73275       -3.42650
C          6.78873       -7.06623       -5.11108
C          5.91088       -5.92774       -5.13125
C          5.95374       -5.35509       -6.48588
O          5.31076       -4.41849       -6.91277
N          6.82556       -6.22769       -7.16686
C          6.86395       -6.23161       -8.61483
C          7.87254       -5.25438       -9.18645
C          7.33789       -7.21350       -6.31720
C          8.21682       -8.27638       -6.72349
C          9.47422       -8.08482       -7.15540
C         10.32326       -9.19746       -7.59307
C         10.38633       -9.59318       -8.93977
C          9.70427       -8.95071      -10.07140
O          9.05574       -7.92664      -10.00908
S          9.97483       -9.79677      -11.56881
C         11.02978      -10.94446      -10.79430
O         11.55639      -11.86210      -11.38782
C         11.16789      -10.67910       -9.35585
C         11.96290      -11.40372       -8.45751
C         11.89276      -10.99764       -7.12489
C         11.10027       -9.94631       -6.70651
C         11.27800       -9.81563       -5.26891
O         10.76797       -8.99124       -4.54201
O         12.15132      -10.78995       -4.90531
C         12.56711      -11.53664       -5.95725
O         13.33754      -12.47341       -5.93424
C         12.83626      -12.49323       -8.90165
C         14.11470      -12.27313       -9.24623
C         15.00116      -13.31028       -9.73869
C         16.18442      -13.67067       -9.19642
C         16.92204      -14.73349       -9.88865
C         18.12173      -15.29661       -9.61459
C         18.93851      -14.91196       -8.51916
N         19.63006      -14.60790       -7.63827
C         18.66590      -16.32881      -10.42944
N         19.11257      -17.17396      -11.09356
S         15.97192      -15.24397      -11.27923
C         14.70459      -14.08194      -10.97322
O         13.73931      -13.93874      -11.69829
C         16.65249      -13.03056       -8.01349
N         17.01767      -12.46631       -7.07009
H          1.98063       -4.57929       -7.79326
H          3.36528       -3.86168       -5.80710
H          0.27635       -1.24551       -2.81845
H          2.06886       -0.37173       -1.17260
H          5.35168       -3.14914       -3.95577
H          3.33083       -5.34943       -3.20084
H          4.73798       -6.40549       -1.35603
H          5.93345       -7.70219       -1.24273
H          3.28339       -7.98856       -2.76182
H          3.57669       -8.57725       -1.11299
H          4.47625       -9.25933       -2.47876
H          5.86833       -5.94522       -8.97840
H          7.02506       -7.25089       -8.97167
H          7.61432       -4.22416       -8.92255
H          7.88734       -5.32903      -10.27893
H          8.88058       -5.45330       -8.81316
H          7.81009       -9.27947       -6.61423
H          9.90171       -7.08627       -7.22646
H         12.38110      -13.47926       -8.97970
H         14.54949      -11.27757       -9.16329
