104

C         -5.50639       -2.05461        1.36422
C         -5.23714       -1.85008        0.06679
C         -5.09750       -0.46062       -0.28584
C         -5.23440        0.38960        0.74589
S         -5.59604       -0.53010        2.19649
O         -6.96382       -0.28321        2.61048
O         -4.49141       -0.42141        3.12851
C         -5.14448        1.82277        0.72108
C         -4.32687        2.48976       -0.10963
C         -4.19090        3.92443       -0.13339
C         -4.45020        4.72130       -1.20008
N         -4.94822        4.25403       -2.47475
O         -4.66593        4.94219       -3.46522
O         -5.64268        3.22969       -2.50454
C         -4.20920        6.11293       -0.90974
C         -3.80080        6.21017        0.36375
C         -3.78280        4.86704        0.95542
C         -3.44544        4.58477        2.23617
C         -3.16237        3.24871        2.76874
C         -2.83263        3.36791        4.06318
C         -2.88764        4.76578        4.41393
N         -2.61725        5.25629        5.74504
O         -2.04745        6.34878        5.86140
O         -2.90738        4.50170        6.68393
C         -3.25692        5.54083        3.37003
C         -3.53382        6.95734        3.44955
C         -4.72485        7.50092        3.15011
C         -4.98380        8.89947        3.26973
N         -5.38082        9.71271        2.21264
C         -5.66170        9.33272        0.84719
C         -4.75160       10.03462       -0.15299
C         -5.58692       11.03786        2.62880
O         -5.91934       11.99329        1.97001
C         -5.30625       10.97811        4.06907
C         -4.92975        9.63468        4.38967
C         -4.69209        9.55835        5.83496
O         -4.37828        8.57763        6.47266
N         -4.97399       10.87599        6.26286
C         -4.87318       11.23495        7.66480
C         -3.48485       11.71805        8.05164
C         -5.33099       11.70231        5.19140
C         -5.78704       13.05831        5.31704
C         -5.68750       14.00348        4.36802
C         -6.18737       15.35682        4.49163
C         -5.75267       16.30408        5.36215
N         -4.73419       16.11689        6.38093
O         -4.07231       17.12036        6.68874
O         -4.61082       15.01823        6.92871
C         -6.34156       17.59346        5.08663
C         -7.14716       17.49025        4.01890
C         -7.12759       16.09717        3.56090
C         -7.85685       15.60994        2.52564
C         -7.99035       14.18941        2.20400
C         -8.76640       14.05811        1.11828
C         -9.18481       15.37440        0.70937
N        -10.06974       15.60175       -0.41207
O         -9.99322       14.79739       -1.35118
O        -10.87142       16.54491       -0.35708
C         -8.68448       16.34243        1.51083
C         -8.87692       17.76475        1.33441
C         -8.47071       18.45412        0.25541
C         -8.71827       19.86103        0.09033
C         -9.89617       20.50717        0.12493
C         -9.78582       21.94098       -0.04017
C         -8.52928       22.38126       -0.21206
S         -7.42946       21.01210       -0.21518
O         -6.56231       21.07046        0.94753
O         -6.89494       20.80438       -1.54784
C         -8.08528       23.73604       -0.39077
C         -8.29174       24.71313        0.50139
H         -5.65049       -2.99447        1.86793
H         -5.12580       -2.63389       -0.66998
H         -4.88958       -0.15155       -1.30432
H         -5.73866        2.35352        1.46503
H         -3.72751        1.95644       -0.84668
H         -4.31566        6.92147       -1.61774
H         -3.48612        7.12638        0.83268
H         -3.13641        2.31238        2.24040
H         -2.55216        2.56717        4.73104
H         -2.72175        7.58697        3.81427
H         -5.54607        6.88848        2.78686
H         -6.70351        9.60512        0.63876
H         -5.58672        8.25246        0.73070
H         -4.82414       11.12420       -0.07821
H         -5.02631        9.75917       -1.17488
H         -3.70523        9.76463        0.01502
H         -5.09827       10.33984        8.25812
H         -5.63224       11.97893        7.92125
H         -2.72615       10.95885        7.83420
H         -3.44663       11.93533        9.12453
H         -3.21374       12.62771        7.50865
H         -6.26262       13.30488        6.26429
H         -5.22954       13.78691        3.40379
H         -6.15378       18.48499        5.66575
H         -7.73268       18.30321        3.62822
H         -7.58780       13.36326        2.75896
H         -9.05807       13.13413        0.64244
H         -9.41217       18.26650        2.13798
H         -7.92457       17.97496       -0.55630
H        -10.85496       20.02379        0.26663
H        -10.66048       22.57823       -0.01956
H         -7.51797       23.94223       -1.29659
H         -8.80784       24.54213        1.44181
H         -7.90879       25.71381        0.32249
