109

C         -0.54032       -2.54813        6.64360
O         -0.32086       -3.72764        6.48885
C         -0.48473       -2.04153        7.91780
C         -0.48475       -0.68461        7.91446
C         -0.40610       -0.04771        9.14604
C         -0.44853       -0.84070       10.32769
C         -0.55970       -2.25014       10.25592
C         -0.52836       -2.85573        9.02775
Cl        -0.82306       -3.28487       11.64881
Cl        -0.47184       -0.05296       11.87986
C         -0.69332       -0.22747        6.50992
O         -0.86729        0.92790        6.14260
C         -0.96675       -1.46852        5.71704
C         -1.66450       -1.52816        4.53448
C         -2.22849       -2.78375        3.87544
C         -3.57287       -2.94713        3.62829
N         -4.67532       -2.04265        3.83159
O         -4.51701       -0.95017        4.28052
O         -5.78761       -2.40694        3.57890
C         -3.83583       -4.31542        3.21296
C         -2.67121       -5.03118        3.23121
C         -1.55485       -4.11030        3.51247
C         -0.20980       -4.40118        3.37920
C          0.82696       -3.37832        3.44937
C          2.04588       -3.97992        3.55166
C          1.88014       -5.41275        3.40417
N          3.00895       -6.29585        3.40343
O          2.97244       -7.34045        2.82804
O          4.04830       -5.92013        3.85985
C          0.56038       -5.70553        3.23599
C          0.04196       -7.08746        3.09256
C          0.28389       -8.02471        4.03292
C         -0.13628       -9.44810        3.99295
N         -0.33095      -10.30018        2.84731
C         -0.01763       -9.98246        1.45313
C         -1.23850       -9.45152        0.70471
C         -0.72023      -11.52632        3.31633
O         -0.94994      -12.50209        2.61689
C         -0.77714      -11.46326        4.77752
C         -0.37813      -10.15869        5.09195
C         -0.39308      -10.05784        6.52798
O         -0.05783       -9.08515        7.17983
N         -0.78992      -11.23976        7.05824
C         -0.85034      -11.43441        8.52750
C         -1.80241      -10.46344        9.26517
C         -1.03423      -12.13018        5.91003
C         -1.51272      -13.52809        5.89939
C         -1.20478      -14.32220        6.90322
C         -1.69783      -15.64612        7.14329
C         -1.78488      -16.08766        8.37798
C         -2.36344      -17.40270        8.32443
C         -2.56321      -17.69180        6.87955
C         -2.17944      -16.62980        6.19744
C         -3.11790      -18.86285        6.24755
N         -3.55566      -19.77677        5.69666
C         -2.65036      -18.13266        9.39852
C         -3.22125      -19.45121        9.36425
C         -3.35850      -19.85034       10.61790
C         -2.89705      -18.81292       11.53958
C         -2.48800      -17.78265       10.82824
C         -2.06077      -16.52492       11.39824
N         -1.71917      -15.51918       11.85671
C         -3.92385      -21.13675       11.01185
C         -4.82499      -21.73235       10.23213
Cl        -5.51389      -23.26359       10.64928
C         -6.41770      -24.74639       10.67310
C         -6.30232      -25.62918       11.76098
C         -7.02947      -26.81804       11.71600
C         -7.83668      -27.12517       10.63291
C         -7.96619      -26.26036        9.55108
C         -7.25091      -25.05688        9.57242
Cl        -7.40425      -23.95881        8.20463
C         -8.46000      -28.42748       10.84587
O         -9.21810      -28.99219       10.07310
C         -8.00517      -28.93623       12.14511
C         -8.34526      -30.09742       12.70923
C         -7.10321      -27.90944       12.68995
O         -6.51938      -27.95588       13.76149
H         -0.39535        1.01679        9.21394
H         -0.61485       -3.94164        8.90821
H         -2.03986       -0.56795        4.18928
H         -4.81071       -4.72300        2.95264
H         -2.68342       -6.06155        2.94335
H          0.69411       -2.32156        3.51819
H          2.97148       -3.45688        3.74503
H         -0.51440       -7.27919        2.20611
H          0.80365       -7.71712        4.92997
H          0.36546      -10.88641        0.92149
H          0.78164       -9.21500        1.39819
H         -2.04839      -10.19413        0.72366
H         -0.99164       -9.24013       -0.35991
H         -1.62720       -8.52834        1.15737
H          0.15460      -11.24799        8.94570
H         -1.09943      -12.44712        8.83775
H         -1.53476       -9.40340        9.04569
H         -1.73787      -10.57298       10.37045
H         -2.85633      -10.71353        9.04966
H         -2.17267      -13.86305        5.10128
H         -0.56275      -13.98943        7.66444
H         -1.49791      -15.51439        9.24768
H         -2.20102      -16.50894        5.13305
H         -3.48335      -20.03142        8.49276
H         -2.93662      -18.83715       12.61493
H         -3.60078      -21.58971       11.94025
H         -5.16089      -21.27715        9.30403
H         -5.66579      -25.39581       12.60616
H         -8.60089      -26.51162        8.71220
H         -9.02358      -30.77466       12.19967
H         -7.94927      -30.37733       13.67927
