86

C          1.55054       -2.56376       -2.46844
C          0.26072       -2.30380       -2.77713
C         -0.18311       -2.09539       -4.11277
N         -0.51286       -1.94164       -5.21837
C         -0.70681       -2.05851       -1.75469
N         -1.46567       -1.80819       -0.91633
C          2.70357       -2.39040       -3.39042
C          3.79052       -1.92757       -2.63088
C          5.00057       -1.55634       -3.19051
C          5.15145       -1.69027       -4.57884
C          4.09884       -2.23860       -5.34962
C          2.86971       -2.59547       -4.74860
C          4.26357       -2.45808       -6.80795
O          5.30591       -2.79445       -7.33538
O          3.08285       -2.18743       -7.40793
C          3.05560       -2.23569       -8.83668
C          6.36797       -1.20731       -5.16759
N          7.35142       -0.74917       -5.57981
C          3.47204       -1.99665       -1.19031
O          4.19169       -1.66974       -0.27378
C          2.12909       -2.66602       -1.12582
C          1.86198       -3.42413       -0.04965
C          0.85884       -4.48436        0.11376
C          0.43844       -5.33246       -0.89623
N         -0.40796       -6.36703       -0.72463
C         -0.84884       -6.55003        0.53222
N         -0.48967       -5.83489        1.60542
C          0.37504       -4.82510        1.36722
C         -1.77061       -7.64829        0.72500
N         -1.78997       -8.72320       -0.13528
C         -2.76272       -9.60827        0.23121
C         -3.38609       -9.10811        1.35250
C         -2.75562       -7.87792        1.67073
C         -3.05417      -10.80670       -0.46582
C         -3.40974      -11.91420       -1.05493
C         -3.82426      -13.20530       -1.74170
C         -4.90059      -13.30393       -2.52883
C         -5.24133      -14.58339       -3.14992
C         -6.53294      -14.94508       -3.48064
N         -6.86442      -16.10667       -4.09574
C         -5.84416      -16.93763       -4.36711
N         -4.57860      -16.72370       -4.02154
C         -4.29358      -15.53136       -3.48023
C         -6.14974      -18.16048       -5.10800
C         -5.36973      -18.79202       -6.00519
C         -5.68929      -19.98185       -6.84483
C         -6.52952      -20.99938       -6.52949
C         -6.69489      -22.14827       -7.35326
N         -6.82880      -23.08448       -8.02373
C         -7.27258      -21.03910       -5.31382
N         -7.88306      -21.07210       -4.32815
C         -4.77233      -19.93068       -8.02902
C         -3.82394      -18.92974       -7.79775
C         -4.05505      -18.26250       -6.52209
O         -3.26280      -17.45834       -6.08469
C         -2.80954      -18.58407       -8.67885
C         -2.72832      -19.27091       -9.88549
C         -3.68113      -20.27647      -10.16987
C         -4.69360      -20.61649       -9.23554
C         -3.64493      -21.04732      -11.43414
O         -3.87686      -22.24000      -11.50433
O         -3.32588      -20.21331      -12.44555
C         -2.89103      -20.86261      -13.63936
C         -1.65358      -18.92151      -10.77114
N         -0.77515      -18.61177      -11.46372
H          5.80216       -1.17336       -2.56130
H          2.08029       -3.03165       -5.35578
H          2.13732       -2.74688       -9.14012
H          3.90929       -2.76063       -9.27403
H          3.02047       -1.20855       -9.20840
H          2.53436       -3.33780        0.80842
H          0.79431       -5.23717       -1.91641
H          0.68992       -4.29009        2.26041
H         -1.17192       -8.82035       -0.92962
H         -4.21111       -9.56925        1.88080
H         -3.00870       -7.21144        2.48598
H         -3.17567      -14.04357       -1.50479
H         -5.54720      -12.45121       -2.71350
H         -7.37499      -14.29477       -3.25770
H         -3.22970      -15.36894       -3.33239
H         -7.15706      -18.49456       -4.88666
H         -2.10940      -17.79023       -8.42249
H         -5.39294      -21.40348       -9.50526
H         -3.65665      -21.53979      -14.02598
H         -1.95659      -21.39832      -13.44300
H         -2.69089      -20.08740      -14.38387
