116

C          8.97024        6.68856       -4.81820
C          9.16877        5.43716       -5.29305
C         10.34530        5.07307       -6.00915
N         11.30036        4.77711       -6.59808
C          8.17537        4.42042       -5.17660
N          7.35064        3.61203       -5.06060
C          9.88917        7.85649       -4.97908
C          9.11876        9.02237       -4.87631
C          9.64739       10.29976       -4.90463
C         11.03544       10.43092       -4.90715
C         11.86356        9.27155       -4.93778
C         11.27534        7.98214       -5.02516
C         13.25269        9.44971       -4.80101
C         13.80186       10.72440       -4.61529
C         12.98222       11.84875       -4.61732
C         11.60763       11.70325       -4.78307
C          7.73955        8.69898       -4.47880
O          6.82242        9.48239       -4.35341
C          7.74066        7.22632       -4.18723
C          6.91286        6.64211       -3.29891
C          5.91093        7.28383       -2.45432
C          6.10173        8.25541       -1.51875
N          7.38112        8.76581       -1.08283
O          7.40928        9.93496       -0.67097
O          8.35349        7.99789       -1.08991
C          4.86397        8.71569       -0.93381
C          3.85346        8.05187       -1.50884
C          4.41786        7.14780       -2.51835
C          3.68033        6.40134       -3.36858
C          4.10199        5.18480       -4.05428
C          3.11072        4.81830       -4.88389
C          2.04286        5.79442       -4.79694
N          0.92022        5.82703       -5.72391
O          0.94128        4.99885       -6.64425
O          0.02436        6.66899       -5.58150
C          2.30585        6.72696       -3.85558
C          1.55612        7.93427       -3.60742
C          1.41258        8.92181       -4.50804
C          0.62618       10.05712       -4.22330
S          0.45388       10.74423       -2.64424
C         -0.52338       12.06585       -3.18916
C         -0.68237       11.92000       -4.52228
C         -0.06486       10.82915       -5.09383
N         -0.20900       10.67781       -6.44560
C         -0.96165       11.80361       -6.77232
C         -1.35352       12.10487       -8.10743
N         -1.66167       12.34335       -9.19675
C         -1.25870       12.58032       -5.63394
C         -0.94224       13.02808       -2.25221
C         -2.08056       13.71051       -2.41453
C         -2.51183       14.68780       -1.46040
C         -3.80744       14.97694       -1.23928
C         -3.87571       16.04740       -0.24624
C         -2.48209       16.37909        0.07800
C         -1.69297       15.57499       -0.65196
C         -1.97604       17.34501        0.96928
N         -1.54699       18.13922        1.70269
C         -5.01370       16.59432        0.22407
C         -5.09301       17.68977        1.18763
C         -6.39055       18.00373        1.36829
C         -7.19517       17.08481        0.58240
C         -6.40213       16.25151       -0.10459
C         -6.90481       15.22621       -0.94247
N         -7.32408       14.39041       -1.62103
C         -6.84894       19.00927        2.28624
C         -7.97332       19.72062        2.10514
C         -8.40503       20.70545        3.06902
C         -9.11034       21.82252        2.83167
C         -9.44356       22.90560        3.78031
C         -9.74952       22.75081        5.09083
C        -10.18091       23.83135        5.90087
N        -10.53498       24.71778        6.56475
C         -9.73155       21.48381        5.74823
N         -9.70273       20.45672        6.28745
C         -9.56127       24.15649        2.96813
C         -9.57196       23.79337        1.61377
C         -9.46128       22.33472        1.46575
O         -9.66463       21.71264        0.44496
C         -9.64185       24.70336        0.57094
C         -9.72570       26.06124        0.88449
C         -9.73042       26.47085        2.24793
C         -9.63232       25.50927        3.28311
C         -9.83752       27.84094        2.53419
C         -9.93219       28.78423        1.50702
C         -9.91440       28.37648        0.17636
C         -9.80983       27.02184       -0.13407
H          8.99370       11.16105       -4.80100
H         11.92490        7.11000       -5.02348
H         13.92333        8.59254       -4.78610
H         14.87085       10.84033       -4.45108
H         13.40587       12.83848       -4.46406
H         10.97999       12.59232       -4.76364
H          7.01917        5.58617       -3.06848
H          4.79303        9.43712       -0.13332
H          2.82521        8.10733       -1.19039
H          4.98190        4.59648       -3.84877
H          3.07283        3.92937       -5.49595
H          1.07903        7.98119       -2.63172
H          1.85791        8.83667       -5.49583
H          0.14688        9.93872       -7.03962
H         -1.80880       13.51371       -5.63760
H         -0.32670       13.17433       -1.36866
H         -2.74009       13.52699       -3.26007
H         -4.62795       14.48127       -1.72985
H         -0.61281       15.57242       -0.66208
H         -4.27291       18.18948        1.67617
H         -8.27512       17.08159        0.59428
H         -6.20641       19.18556        3.14763
H         -8.59229       19.56871        1.22248
H         -8.05156       20.48869        4.07414
H         -9.62413       24.35381       -0.45753
H         -9.60885       25.86178        4.31029
H         -9.85832       28.19001        3.56494
H        -10.02180       29.84076        1.74760
H         -9.98692       29.11188       -0.62141
H         -9.80148       26.72229       -1.18066
