90

C         -5.45679        0.56563        5.97900
C         -5.83520       -0.65038        5.52596
C         -6.44258       -1.61792        6.37542
N         -6.93624       -2.40002        7.07636
C         -5.57120       -1.06711        4.18812
N         -5.35982       -1.38230        3.09198
C         -5.55849        1.08244        7.36964
C         -4.56606        2.05909        7.54399
C         -4.42844        2.81694        8.69215
C         -5.38605        2.65218        9.69577
C         -6.42982        1.69244        9.53654
C         -6.49347        0.89121        8.37541
C         -7.41522        1.59847       10.53031
C         -7.38692        2.43616       11.64770
C         -6.36365        3.36755       11.79947
C         -5.36337        3.46939       10.83370
C         -3.86093        2.29969        6.27589
O         -2.84659        2.94591        6.12836
C         -4.68475        1.58082        5.24436
C         -4.89931        2.03953        3.99967
C         -4.31394        3.25004        3.53982
S         -5.12310        4.74259        3.78344
C         -3.83864        5.66807        3.08195
C         -2.82785        4.81964        2.65689
C         -3.11711        3.44099        2.89148
C         -1.59523        5.25295        2.07490
N         -0.59772        5.59478        1.59627
C         -3.98206        7.08995        3.07660
C         -3.43405        7.88430        2.14099
C         -3.55748        9.33570        2.10811
C         -3.61984       10.07290        3.23065
N         -3.55653        9.85030        0.83138
N         -3.59268       11.09467        0.72117
C         -3.66160       11.58687       -0.54254
C         -3.68898       10.95776       -1.73011
C         -3.81822       11.97594       -2.77443
C         -3.83600       13.26967       -2.06939
C         -3.74837       13.01609       -0.74922
C         -3.92989       14.57645       -2.60480
N         -4.01817       15.64910       -3.03489
C         -3.92138       11.71935       -4.09476
C         -4.09792       12.71932       -5.14477
C         -4.18806       12.08722       -6.33184
C         -4.06679       10.65858       -6.09706
C         -3.90514       10.42209       -4.78522
C         -3.75295        9.12253       -4.25005
N         -3.64455        8.04756       -3.82637
C         -4.40114       12.74517       -7.59663
C         -3.59199       13.64324       -8.17961
C         -3.78871       14.44012       -9.41182
C         -4.51195       14.09183      -10.50486
C         -4.54642       14.88003      -11.69019
N         -4.57807       15.52026      -12.65643
C         -5.24392       12.86884      -10.58559
N         -5.83940       11.87654      -10.64429
C         -2.87654       15.61824       -9.29461
C         -2.00559       15.39735       -8.21969
C         -2.32428       14.13872       -7.54172
O         -1.66284       13.63728       -6.65734
C         -1.01784       16.28511       -7.82644
C         -0.89250       17.48058       -8.53428
C         -1.77297       17.75312       -9.61908
C         -2.76501       16.81617       -9.98783
C         -1.63935       18.96883      -10.30476
C         -0.66322       19.89624       -9.93353
C          0.19624       19.62283       -8.87315
C          0.08310       18.42086       -8.17631
H         -3.64973        3.57181        8.75642
H         -7.31897        0.19490        8.25567
H         -8.23261        0.88635       10.43411
H         -8.17135        2.36692       12.39747
H         -6.34888        4.02454       12.66566
H         -4.58026        4.21365       10.96561
H         -5.63110        1.58112        3.34148
H         -2.44628        2.62747        2.63970
H         -4.58612        7.53262        3.86658
H         -2.87499        7.46889        1.30438
H         -3.58880        9.63053        4.21795
H         -3.70117       11.15307        3.18713
H         -3.64544        9.88884       -1.83858
H         -3.73777       13.73867        0.05299
H         -4.14215       13.78872       -5.02522
H         -4.08495        9.91328       -6.87922
H         -5.35099       12.46463       -8.04294
H         -0.38316       16.05064       -6.97614
H         -3.43392       17.07117      -10.80368
H         -2.29695       19.20850      -11.13815
H         -0.57532       20.83537      -10.47395
H          0.95459       20.34664       -8.58544
H          0.76190       18.22708       -7.34773
