100

C          3.18975        1.22707       -0.43339
C          4.45646        1.38419        0.00524
C          5.49427        0.48870       -0.37373
N          6.32736       -0.25595       -0.69006
C          4.79862        2.40151        0.94343
N          5.06856        3.24266        1.69552
C          2.65664        0.16070       -1.31920
C          1.30579       -0.03997       -0.98820
C          0.44530       -0.83548       -1.71848
C          0.93070       -1.37529       -2.91097
C          2.28690       -1.15152       -3.30172
C          3.16035       -0.41333       -2.47456
C          2.70990       -1.61506       -4.55513
C          1.82236       -2.27027       -5.41192
C          0.50716       -2.50031       -5.01784
C          0.06600       -2.06527       -3.76933
C          0.88222        0.95912        0.00623
O         -0.15516        0.98144        0.62992
C          1.99847        1.95952        0.00397
C          1.80489        3.28619       -0.03768
C          0.51729        3.93344       -0.05517
C         -0.47364        3.80260       -0.95095
C         -1.61823        4.64342       -0.68000
C         -1.50337        5.45046        0.39399
S          0.05977        5.13128        1.12779
O         -0.08057        4.45857        2.40448
O          0.92728        6.28332        0.97149
C         -2.45213        6.47048        0.78484
N         -2.72694        6.93477        2.08654
C         -2.13014        6.52336        3.33934
C         -0.90428        7.34674        3.70414
C         -3.74438        7.91805        2.09749
O         -4.23736        8.53182        3.02155
C         -4.10275        8.02507        0.68263
C         -3.26328        7.12953       -0.06407
C         -3.64997        7.27096       -1.48943
O         -3.17879        6.68170       -2.44087
N         -4.68676        8.22395       -1.45308
C         -5.41586        8.62252       -2.64601
C         -6.64297        7.76379       -2.90828
C         -4.93614        8.64663       -0.14978
C         -5.95836        9.57959        0.20742
C         -6.00893       10.84146       -0.24436
C         -7.08808       11.73978        0.05590
C         -7.85695       11.77088        1.15602
C         -8.84294       12.82289        1.15709
C         -8.82590       13.59956        0.06323
S         -7.58756       13.01886       -1.03669
O         -6.53900       14.01281       -1.16460
O         -8.21228       12.44048       -2.21284
C         -9.62764       14.76476       -0.21192
C        -10.96634       14.82018       -0.28284
C        -11.85969       15.94974       -0.62877
C        -11.63405       17.26719       -0.41148
C        -12.60449       18.27249       -0.66354
N        -13.40057       19.09183       -0.86290
C        -10.41696       17.75173        0.16650
N         -9.43599       18.13964        0.63554
C        -13.15145       15.34010       -1.08229
C        -13.11432       13.96918       -0.79945
C        -11.83031       13.59272       -0.20695
O        -11.57265       12.49865        0.24900
C        -14.14595       13.08876       -1.07728
C        -15.29995       13.59886       -1.67041
C        -15.37892       14.98495       -1.98222
C        -14.29176       15.84403       -1.69733
C        -16.55443       15.47411       -2.57077
C        -17.62708       14.62186       -2.84519
C        -17.53961       13.26582       -2.54311
C        -16.38079       12.75565       -1.96122
H         -0.59829       -0.92026       -1.42843
H          4.17505       -0.21090       -2.80686
H          3.72829       -1.43888       -4.89617
H          2.15642       -2.59225       -6.39529
H         -0.18259       -3.00508       -5.68978
H         -0.97151       -2.23903       -3.48969
H          2.63909        3.97038       -0.18511
H         -0.44768        3.16516       -1.82531
H         -2.46106        4.62407       -1.35999
H         -1.93677        5.45188        3.31676
H         -2.87072        6.66439        4.13604
H         -0.14578        7.33252        2.92186
H         -0.44843        6.96641        4.62303
H         -1.17009        8.39697        3.86078
H         -4.73696        8.54224       -3.50179
H         -5.70720        9.67342       -2.58027
H         -6.36842        6.71306       -3.04259
H         -7.14948        8.10297       -3.81836
H         -7.35855        7.82369       -2.08199
H         -6.72203        9.19523        0.88180
H         -5.23307       11.22609       -0.90601
H         -7.76654       11.08772        1.99029
H         -9.52715       12.93835        1.98709
H         -9.01159       15.63742       -0.41993
H        -14.03998       12.03406       -0.83849
H        -14.37807       16.88888       -1.97665
H        -16.65242       16.53004       -2.81588
H        -18.53398       15.01876       -3.29463
H        -18.37477       12.60385       -2.75816
H        -16.33106       11.69257       -1.73268
