110

C         -2.23819        0.61659       -0.52007
C         -3.57056        0.76482       -0.28013
C         -4.49527       -0.31436       -0.40157
N         -5.24456       -1.19058       -0.49673
C         -4.13543        2.02687        0.05777
N         -4.56402        3.06455        0.35113
C         -1.54193       -0.63000       -0.98040
C         -0.28522       -0.25363       -1.47427
C          0.68036       -1.13569       -1.92214
C          0.38910       -2.49437       -1.88269
C         -0.88345       -2.93361       -1.41930
C         -1.83848       -1.98858       -0.95246
C         -1.14543       -4.31466       -1.43462
C         -0.17762       -5.22896       -1.86931
C          1.07436       -4.78423       -2.28319
C          1.35545       -3.42162       -2.29179
C         -0.09446        1.18956       -1.38564
O          0.78983        1.80716       -1.93887
C         -1.21877        1.69434       -0.52421
C         -1.08752        2.79557        0.24207
C          0.17138        3.47643        0.32404
C          0.68232        4.68994       -0.15093
C          2.11440        4.46278       -0.43882
C          3.05335        5.05421       -1.32943
C          4.36983        4.57948       -1.46514
C          4.84087        3.60632       -0.59911
C          3.98649        3.04894        0.34966
C          2.62828        3.43485        0.36321
S          1.39041        2.74257        1.32068
C          5.20921        5.06811       -2.52000
N          5.90351        5.43302       -3.38318
C         -0.09668        5.89031       -0.42075
N         -1.03313        6.41318        0.52247
C         -1.55090        5.85130        1.75088
C         -1.08548        6.55581        3.01657
C         -1.50205        7.69260        0.15749
O         -2.28937        8.42657        0.72055
C         -0.76432        7.96740       -1.06433
C          0.02575        6.80552       -1.41092
C          0.70859        7.19147       -2.67796
O          1.33131        6.48493       -3.44327
N          0.44845        8.57311       -2.79834
C          1.25798        9.42954       -3.64340
C          0.75312        9.53934       -5.06581
C         -0.51156        8.98723       -1.88702
C         -1.04364       10.32657       -1.83659
C         -2.34971       10.58313       -1.67198
C         -2.90884       11.89852       -1.63285
C         -2.56198       13.07889       -0.96152
C         -3.59757       14.10140       -1.12377
C         -3.80176       15.37336       -0.52212
C         -4.71195       16.29954       -1.05709
C         -5.55925       15.92445       -2.08936
C         -5.51224       14.62401       -2.58691
C         -4.52623       13.73723       -2.10287
S         -4.32126       12.11719       -2.58759
C         -4.70815       17.65040       -0.57707
N         -4.68019       18.74646       -0.19418
C         -1.33424       13.15090       -0.17543
C         -0.45937       14.15501        0.04944
C          0.80508       14.15311        0.85259
C          1.63159       13.11197        1.12511
C          2.78921       13.22192        1.94927
N          3.73312       13.28722        2.62253
C          1.46317       11.80988        0.58585
N          1.39402       10.73289        0.15890
C          1.06530       15.57628        1.24236
C          0.07033       16.37657        0.67981
C         -0.68615       15.59455       -0.30487
O         -1.25140       16.06966       -1.26583
C         -0.10990       17.71652        0.99722
C          0.82782       18.32628        1.84172
C          1.96630       17.58781        2.25776
C          2.06346       16.21242        1.96828
C          2.98483       18.23880        2.96886
C          2.85210       19.57580        3.34007
C          1.69094       20.27302        3.02031
C          0.68863       19.65749        2.26639
H          1.63906       -0.75941       -2.26829
H         -2.78092       -2.35920       -0.56156
H         -2.11166       -4.69815       -1.11279
H         -0.40010       -6.29329       -1.88248
H          1.83205       -5.49451       -2.60523
H          2.33889       -3.08850       -2.61922
H         -1.85243        3.05985        0.96211
H          2.74829        5.82595       -2.01415
H          5.86780        3.25200       -0.67030
H          4.34793        2.27349        1.01960
H         -1.31277        4.80286        1.86043
H         -2.64483        5.92578        1.69368
H         -0.04787        6.29365        3.24234
H         -1.70591        6.23538        3.86139
H         -1.15413        7.64421        2.94439
H          2.27344        9.01441       -3.65834
H          1.34632       10.42428       -3.19308
H          0.66173        8.55316       -5.52960
H          1.45422       10.13408       -5.66142
H         -0.22423       10.02901       -5.09976
H         -0.33844       11.14086       -1.95961
H         -3.05352        9.75255       -1.61429
H         -3.17760       15.68247        0.31006
H         -6.26644       16.63305       -2.51638
H         -6.20028       14.30974       -3.36836
H         -1.08853       12.19000        0.27194
H         -0.95482       18.26849        0.59296
H          2.94066       15.69087        2.33155
H          3.89644       17.70886        3.23997
H          3.65120       20.06705        3.88988
H          1.57222       21.30389        3.34489
H         -0.20399       20.22772        2.01591
