102

C         -2.58680        1.17752        0.48371
C         -2.54343        1.41952        1.81240
C         -3.64500        1.13009        2.66689
N         -4.55519        0.89861        3.34826
C         -1.33927        1.84975        2.44342
N         -0.34689        2.16136        2.95823
C         -3.63444        0.43617       -0.24036
C         -2.99406       -0.30896       -1.24487
C         -3.67934       -1.15122       -2.09730
C         -5.07730       -1.16995       -2.01096
C         -5.75156       -0.33045       -1.07106
C         -5.01677        0.45456       -0.16484
C         -7.15286       -0.28127       -1.08655
C         -7.88231       -1.06141       -1.98415
C         -7.22367       -1.91614       -2.86410
C         -5.82952       -1.97072       -2.87752
C         -1.57504        0.11081       -1.36721
O         -0.73372       -0.33365       -2.11227
C         -1.47442        1.30251       -0.45975
C         -0.77886        2.36806       -0.89491
C         -1.06651        3.72042       -0.52175
S         -2.68706        4.27139       -0.31181
C         -2.21905        5.85973        0.12789
C         -0.84845        6.00636       -0.01365
C         -0.20109        4.79480       -0.42078
C         -0.14129        7.22339        0.26435
N          0.40684        8.22020        0.49360
C         -3.24831        6.73886        0.57260
C         -3.21808        8.05735        0.33172
C         -4.19143        8.98111        0.83100
N         -4.43052        9.22372        2.18583
C         -3.69882        8.68245        3.31366
C         -2.50012        9.54121        3.68719
C         -5.37170       10.25817        2.36381
O         -5.78713       10.75867        3.38931
C         -5.71041       10.63408        0.97980
C         -4.95145        9.79503        0.09602
C         -5.27229       10.18332       -1.28345
O         -4.81183        9.70610       -2.30539
N         -6.21151       11.22199       -1.10428
C         -6.73394       11.97223       -2.22801
C         -5.86343       13.17228       -2.56379
C         -6.42569       11.49393        0.25223
C         -7.30313       12.52433        0.74405
C         -7.06698       13.22219        1.86680
C         -7.98900       14.19344        2.33191
S         -7.77552       15.82187        1.89302
C         -9.25378       16.32298        2.61316
C         -9.70603       15.31516        3.47264
C         -9.03340       14.05700        3.22778
C         -9.40099       12.77339        3.92666
C        -10.74799       12.83854        4.65298
N        -11.84551       12.56235        3.64776
O        -12.70355       13.43287        3.45420
O        -11.83952       11.44815        3.11161
C        -11.01979       14.16357        5.35252
N        -10.13570       14.19822        6.57829
O         -8.98337       14.62960        6.46783
O        -10.62813       13.73981        7.61611
C        -10.79454       15.42656        4.51444
C         -9.77447       17.67014        2.37310
S        -10.57725       18.51633        3.66804
C        -10.90820       19.90177        2.74464
C        -10.37011       19.78520        1.49494
C         -9.74253       18.49447        1.24815
C         -9.19316       18.20578       -0.02220
F         -8.68422       17.03367       -0.40517
C         -9.24576       19.26962       -0.94514
F         -8.70309       19.08239       -2.15983
C         -9.84441       20.52234       -0.66640
F         -9.83948       21.46263       -1.62452
C        -10.45053       20.81806        0.55955
F        -11.03885       21.99357        0.80247
H         -3.14174       -1.71934       -2.85055
H         -5.53440        1.10181        0.53890
H         -7.69291        0.37891       -0.41004
H         -8.96791       -1.00190       -1.99697
H         -7.79577       -2.53246       -3.55294
H         -5.33701       -2.63529       -3.58430
H         -0.05119        2.23193       -1.69567
H          0.86774        4.71454       -0.58899
H         -4.08631        6.31318        1.12219
H         -2.45288        8.50809       -0.29642
H         -3.38527        7.65582        3.10960
H         -4.38110        8.64246        4.17087
H         -1.78739        9.60980        2.85932
H         -1.98239        9.11330        4.55136
H         -2.80952       10.55910        3.94739
H         -7.76279       12.28250       -2.02188
H         -6.76867       11.30753       -3.09978
H         -5.79685       13.86168       -1.71623
H         -6.27893       13.71691       -3.41697
H         -4.84560       12.85993       -2.82068
H         -8.20105       12.72319        0.16322
H         -6.17482       13.06671        2.46844
H         -8.61502       12.55906        4.66313
H         -9.37624       11.94199        3.21123
H        -10.82864       11.99941        5.35769
H        -12.03642       14.20282        5.76900
H        -10.57271       16.25788        5.19213
H        -11.72586       15.67971        3.99373
H        -11.45539       20.73208        3.17301
