117

C         -0.03734        1.70549       -7.30605
C         -1.33247        1.90374       -6.97389
C         -2.39478        1.77504       -7.92380
N         -3.24976        1.67748       -8.69682
C         -1.71545        2.00741       -5.60465
N         -2.01564        2.00916       -4.48435
C          0.42004        0.99334       -8.51732
C          1.44292        0.11289       -8.11394
C          2.07419       -0.75245       -8.98339
C          1.73596       -0.66765      -10.33892
C          0.76966        0.28716      -10.78252
C          0.08653        1.09723       -9.85525
C          0.53590        0.42733      -12.15676
C          1.21860       -0.36655      -13.07986
C          2.12528       -1.32790      -12.64156
C          2.38132       -1.47955      -11.27890
C          1.84220        0.40070       -6.71457
O          2.65184       -0.18365       -6.02900
C          1.09616        1.65916       -6.38302
C          1.79244        2.63298       -5.76897
C          1.59797        4.06599       -5.90398
C          1.67899        4.79044       -7.05504
N          2.11833        4.28323       -8.33430
O          1.64458        4.82745       -9.34114
O          2.94952        3.36699       -8.35119
C          1.37044        6.18106       -6.85409
C          1.13365        6.36043       -5.55038
C          1.32482        5.09807       -4.84822
C          1.37298        5.00707       -3.49902
C          1.84394        3.83006       -2.77353
C          1.92409        4.15170       -1.47517
C          1.45866        5.51093       -1.30014
N          1.28140        6.08890        0.01460
O          1.00621        5.30307        0.93125
O          1.47302        7.29924        0.17421
C          1.10929        6.08680       -2.47345
C          0.44424        7.37034       -2.66730
C          0.94326        8.57003       -2.31874
C          0.28217        9.83293       -2.53310
N          0.02554       10.75402       -1.50897
C          0.39355       10.64253       -0.10972
C          1.74185       11.29005        0.17503
C         -0.54548       11.94365       -2.00745
O         -0.87247       12.95891       -1.42879
C         -0.61405       11.68724       -3.45063
C         -0.09023       10.36944       -3.70033
C         -0.09852       10.17274       -5.16096
O          0.27590        9.21042       -5.79493
N         -0.59132       11.39007       -5.64996
C         -0.68266       11.64257       -7.07301
C         -1.98417       11.14498       -7.67794
C         -0.89902       12.26840       -4.61649
C         -1.31564       13.62069       -4.83304
C         -2.39581       14.18073       -4.26977
C         -2.68173       15.54852       -4.51542
S         -2.05268       16.74004       -3.45461
C         -2.75650       18.03287       -4.33799
C         -3.39663       17.57664       -5.48463
C         -3.42123       16.13523       -5.52619
C         -4.11377       15.37195       -6.52862
N         -4.68440       14.77669       -7.34460
C         -4.00891       18.42105       -6.55298
F         -3.88824       19.75315       -6.31782
F         -3.41292       18.18797       -7.75099
F         -5.33017       18.16847       -6.71017
C         -2.57917       19.36315       -3.85396
C         -3.46100       19.96595       -3.03708
C         -3.50850       21.37463       -2.57710
C         -2.45388       22.19155       -2.32485
C         -2.60337       23.49976       -1.78018
N         -2.72300       24.56914       -1.34535
C         -1.10617       21.77247       -2.51334
N         -0.01161       21.42525       -2.68038
C         -4.93679       21.66334       -2.25356
C         -5.63264       20.44885       -2.21853
C         -4.75463       19.33539       -2.59857
O         -5.06461       18.16319       -2.57954
C         -6.98761       20.34521       -1.94807
C         -7.70478       21.52157       -1.71453
C         -7.03521       22.77665       -1.75754
C         -5.65180       22.83605       -2.03933
C         -7.77559       23.94526       -1.52010
C         -9.14447       23.88397       -1.24978
C         -9.79681       22.65496       -1.22183
C         -9.08195       21.48009       -1.45377
H          2.85482       -1.41517       -8.62355
H         -0.64345        1.82392      -10.19989
H         -0.16324        1.17515      -12.52667
H          1.04498       -0.22983      -14.14444
H          2.64849       -1.95058      -13.36267
H          3.10735       -2.22498      -10.96044
H          2.73895        2.36635       -5.29459
H          1.36450        6.94754       -7.61603
H          0.93627        7.30592       -5.09603
H          2.14515        2.88021       -3.17888
H          2.27191        3.51547       -0.67549
H         -0.51987        7.31435       -3.17411
H          1.91210        8.64034       -1.82693
H          0.38326        9.59690        0.20262
H         -0.36898       11.16117        0.48482
H          2.53500       10.83731       -0.42787
H          2.00597       11.18054        1.23149
H          1.71961       12.36098       -0.05627
H          0.14886       11.11957       -7.56196
H         -0.54779       12.70889       -7.27092
H         -2.08407       10.05937       -7.57110
H         -2.01219       11.38187       -8.74647
H         -2.84932       11.61242       -7.19853
H         -0.66439       14.20683       -5.47804
H         -3.05773       13.62054       -3.60893
H         -1.71725       19.88916       -4.25198
H         -7.46801       19.37048       -1.94317
H         -5.18241       23.81286       -2.10372
H         -7.29198       24.92034       -1.53799
H         -9.70214       24.79825       -1.06133
H        -10.86390       22.60935       -1.01822
H         -9.61264       20.53014       -1.43113
