121

C          0.06558        6.15855       -4.29237
C          0.13037        7.50316       -4.15214
C         -0.63158        8.37830       -4.98573
N         -1.23952        9.07456       -5.68998
C          1.09231        8.10850       -3.28405
N          1.89431        8.59280       -2.60160
C         -0.57744        5.46797       -5.42683
C          0.35152        4.53143       -5.90988
C          0.06311        3.65648       -6.93816
C         -1.26383        3.60436       -7.38430
C         -2.25427        4.45622       -6.80291
C         -1.88666        5.44378       -5.86910
C         -3.60300        4.24004       -7.12229
C         -3.97187        3.23583       -8.01960
C         -2.99667        2.46489       -8.64613
C         -1.64998        2.65077       -8.33410
C          1.47122        4.40293       -4.93821
O          2.47485        3.73407       -5.04451
C          0.98289        5.16506       -3.72579
C          1.07807        4.51520       -2.54523
C          0.24074        4.66773       -1.37516
S         -0.62936        6.11612       -1.08919
C         -1.40414        5.56209        0.32789
C         -0.87795        4.33998        0.71918
C         -0.01898        3.76675       -0.32549
C          0.46365        2.31716       -0.18274
C         -0.49780        1.43168       -0.88360
N         -1.27131        0.71863       -1.37494
C          0.57963        1.81566        1.28090
C          0.19724        2.82805        2.34443
C         -1.12476        3.54100        2.00177
O         -1.53320        4.34888        3.10471
C         -1.76249        3.62022        4.30648
C         -2.41835        6.37739        0.88661
N         -3.67638        6.58330        0.30082
C         -4.18135        6.01558       -0.93201
C         -4.85631        4.67179       -0.71588
C         -4.52657        7.30872        1.15614
O         -5.69271        7.61510        1.01932
C         -3.67360        7.55080        2.32321
C         -2.36727        7.00035        2.06887
C         -1.54279        7.26141        3.26915
O         -0.36567        7.01403        3.43841
N         -2.47648        7.83598        4.16841
C         -2.24051        7.84104        5.59994
C         -1.49885        9.06383        6.10044
C         -3.71819        8.03352        3.56169
C         -4.85237        8.64493        4.19771
C         -4.79783        9.90531        4.65333
C         -5.88475       10.70306        5.25366
C         -5.79368       12.07524        5.04867
N         -6.63053       12.97738        5.57325
C         -7.64865       12.50575        6.32967
C         -7.86519       11.14285        6.60717
C         -6.93236       10.22227        6.05264
N         -7.05737        8.89109        6.30203
C         -8.09547        8.48331        7.06141
C         -8.99810        9.36840        7.59138
N         -8.90146       10.69902        7.38038
C         -8.56534       13.55742        6.81338
C         -8.21027       14.84145        6.99738
C         -9.17134       15.83689        7.41616
C         -9.46329       16.97305        6.76501
C        -10.39355       18.05771        7.14941
C        -11.53708       17.93344        7.86661
C        -12.42868       19.02621        8.08037
N        -13.14908       19.91718        8.26309
C        -11.98663       16.68802        8.41368
N        -12.35295       15.69202        8.85352
C         -9.94991       19.27130        6.39853
C         -9.04348       18.87117        5.40843
C         -8.74585       17.43678        5.52630
O         -8.04261       16.80915        4.76375
C         -8.47259       19.74170        4.49248
C         -8.80508       21.09744        4.57430
C         -9.68308       21.54636        5.60057
C        -10.24085       20.62452        6.51456
C         -9.98700       22.91428        5.67973
C         -9.45682       23.82070        4.75915
C         -8.60798       23.37561        3.75008
C         -8.27832       22.02303        3.66131
H          0.81056        2.94618       -7.27902
H         -2.63837        6.09132       -5.42584
H         -4.38727        4.82078       -6.64026
H         -5.02348        3.05168       -8.22630
H         -3.28562        1.69763       -9.36013
H         -0.90808        2.01589       -8.81462
H          1.78526        3.68608       -2.51149
H          1.45245        2.21255       -0.63946
H          1.60396        1.47837        1.48250
H         -0.04319        0.92275        1.45243
H          0.99628        3.56954        2.48150
H          0.14505        2.27975        3.28726
H         -1.91995        2.81174        1.79790
H         -2.06638        4.31874        5.08808
H         -0.85564        3.13755        4.67939
H         -2.54512        2.87278        4.15350
H         -3.38783        5.92925       -1.67708
H         -4.91969        6.71395       -1.34468
H         -4.14924        3.93088       -0.33057
H         -5.26407        4.29895       -1.66067
H         -5.68032        4.75521        0.00038
H         -1.64858        6.94908        5.83990
H         -3.19260        7.73038        6.13096
H         -0.49842        9.12518        5.66302
H         -1.39301        9.01072        7.18941
H         -2.03175        9.98642        5.85924
H         -5.77775        8.07372        4.21424
H         -3.86244       10.45157        4.53049
H         -5.01420       12.50713        4.42635
H         -8.17409        7.41248        7.22552
H         -9.83131        9.03555        8.19984
H         -9.59238       13.24186        6.97040
H         -7.18717       15.17810        6.82698
H         -9.64956       15.58765        8.35898
H         -7.78010       19.36526        3.74396
H        -10.88646       21.00400        7.30059
H        -10.65115       23.28909        6.45639
H         -9.71184       24.87545        4.82788
H         -8.20162       24.08156        3.02989
H         -7.60987       21.69702        2.86669
