97

C          3.40803        5.08941       -3.65466
C          3.39745        5.18176       -5.00442
C          4.58113        5.04999       -5.78219
N          5.55138        4.94011       -6.40992
C          2.20955        5.49152       -5.72809
N          1.23282        5.73213       -6.30860
C          4.59124        4.89690       -2.77307
C          4.27365        5.40887       -1.50582
C          5.10578        5.31491       -0.40648
C          6.30857        4.62564       -0.56126
C          6.66410        4.08503       -1.83245
C          5.79962        4.23659       -2.94029
C          7.86669        3.37171       -1.94467
C          8.69007        3.17767       -0.83253
C          8.32939        3.69831        0.40716
C          7.14770        4.42410        0.54133
C          2.88231        5.87689       -1.47268
O          2.37176        6.52261       -0.58390
C          2.27890        5.35911       -2.74586
C          1.00173        4.96460       -2.86714
C          0.05278        5.10517       -1.82317
S         -0.88596        6.51981       -1.73323
C         -1.74506        5.99980       -0.32502
C         -1.34562        4.71152        0.00872
C         -0.29879        4.21469       -0.83052
C         -1.91817        3.94775        1.08210
N         -2.38899        3.31708        1.93399
C         -2.71290        6.84216        0.31772
C         -2.98704        8.08849       -0.10058
C         -3.91606        8.90899        0.57070
N         -4.55585        9.87433       -0.16355
C         -5.38730       10.61124        0.64387
C         -5.27991       10.11037        1.93672
C         -4.36031        9.01951        1.86845
C         -5.98019       10.60079        3.12536
O         -6.42864       11.74520        3.19097
C         -6.19247        9.63317        4.26929
C         -6.17148       11.59955        0.01664
C         -7.38665       11.29584       -0.48097
C         -7.98023       12.51417       -1.04030
C         -6.95131       13.55713       -0.87645
C         -5.89651       12.99802       -0.25285
C         -6.99635       14.91216       -1.27943
N         -7.03099       16.02593       -1.60865
C         -9.22498       12.60319       -1.55786
C         -9.85417       13.81147       -2.09293
C        -11.08864       13.49566       -2.53633
C        -11.32363       12.08892       -2.26959
C        -10.23622       11.54502       -1.69982
C        -10.16660       10.18584       -1.32879
N        -10.12073        9.06561       -1.02613
C        -12.01723       14.41114       -3.15004
C        -11.82898       15.09600       -4.28878
C        -12.68445       16.11679       -4.93387
C        -14.03482       16.21814       -4.86466
C        -14.77964       17.18165       -5.60310
N        -15.39030       17.96854       -6.19655
C        -14.83418       15.31903       -4.09442
N        -15.47822       14.58770       -3.46945
C        -11.78555       16.90735       -5.82740
C        -10.55578       16.24248       -5.92051
C        -10.54542       15.04867       -5.07100
O         -9.66291       14.21656       -5.04849
C         -9.48488       16.69790       -6.67220
C         -9.63600       17.89852       -7.36869
C        -10.86450       18.61212       -7.28501
C        -11.93008       18.11040       -6.50545
C        -10.99199       19.82129       -7.98405
C         -9.93590       20.32032       -8.74901
C         -8.73551       19.61989       -8.82552
C         -8.58504       18.41561       -8.13884
H          4.78533        5.70915        0.55392
H          6.07046        3.77781       -3.88728
H          8.17121        2.94561       -2.89872
H          9.61317        2.61204       -0.93291
H          8.96552        3.53606        1.27374
H          6.87880        4.81516        1.52089
H          0.64725        4.45198       -3.75585
H          0.16506        3.24192       -0.71033
H         -3.23484        6.43911        1.18401
H         -2.49311        8.51981       -0.96613
H         -4.46035       10.00313       -1.16270
H         -4.02058        8.40440        2.69201
H         -5.32443        8.98904        4.42637
H         -7.07004        9.01620        4.05687
H         -6.35698       10.18957        5.19605
H         -7.82145       10.31267       -0.43989
H         -4.97241       13.48708        0.01902
H         -9.41927       14.79472       -2.16044
H        -12.24267       11.57609       -2.51348
H        -12.92919       14.51444       -2.56881
H         -8.55505       16.13566       -6.69070
H        -12.83998       18.69818       -6.44199
H        -11.91917       20.38977       -7.94110
H        -10.05138       21.25915       -9.28493
H         -7.91336       20.01174       -9.41910
H         -7.63684       17.88588       -8.20810
