117

C         -2.58504        0.91114        0.65187
C         -2.98861        1.26900        1.88994
C         -4.30160        0.97841        2.36866
N         -5.37589        0.75049        2.73176
C         -2.09730        1.85513        2.83575
N         -1.39494        2.27961        3.65231
C         -3.32122        0.03200       -0.27839
C         -2.37324       -0.69654       -1.01400
C         -2.73095       -1.63615       -1.96202
C         -4.09726       -1.80548       -2.23499
C         -5.06770       -1.01002       -1.55571
C         -4.66912       -0.09625       -0.56758
C         -6.42131       -1.13582       -1.89581
C         -6.82565       -2.04221       -2.87485
C         -5.88349       -2.84023       -3.51814
C         -4.52856       -2.72283       -3.20187
C         -1.01208       -0.16542       -0.75173
O          0.03563       -0.56786       -1.20854
C         -1.25162        1.07413        0.06757
C         -0.53453        2.16307       -0.27674
C         -1.00829        3.51924       -0.20519
S         -2.68828        3.87406       -0.37486
C         -2.47530        5.52685       -0.05248
C         -1.16089        5.88232       -0.29654
C         -0.29446        4.72000       -0.16701
C          1.21066        4.87671       -0.03289
N          1.74598        4.19662        1.22519
O          2.89940        3.75157        1.16477
O          1.02167        4.17875        2.22855
C          1.65452        6.35571        0.05861
C          0.86449        7.26661       -0.89195
C         -0.62981        7.28902       -0.52053
N         -1.36914        8.04564       -1.63275
O         -1.75236        7.40315       -2.62027
O         -1.46967        9.27353       -1.48747
C         -3.60662        6.29178        0.31592
C         -3.47145        7.28843        1.20147
C         -4.54864        8.12668        1.60199
N         -4.91758        8.37332        2.92073
C         -4.29320        7.82010        4.10541
C         -4.89671        6.49655        4.54071
C         -5.95146        9.33137        2.98939
O         -6.51566        9.80336        3.95446
C         -6.13804        9.69555        1.57352
C         -5.26359        8.89415        0.78466
C         -5.41033        9.26902       -0.62765
O         -4.81497        8.77104       -1.55866
N         -6.35829       10.30763       -0.56988
C         -6.86580       11.00882       -1.74458
C         -5.82938       11.24178       -2.83999
C         -6.77463       10.52097        0.74963
C         -7.73083       11.49581        1.13820
C         -7.48273       12.51124        1.97381
C         -8.49094       13.45607        2.30045
S         -8.39527       14.27985        3.84056
C         -9.72708       15.27240        3.48289
O        -10.13078       16.13734        4.20547
C        -10.28207       14.94059        2.28120
C         -9.60703       13.91622        1.62307
C        -10.18301       13.62408        0.41555
O         -9.81932       12.79191       -0.36706
S        -11.56432       14.56720        0.11483
C        -11.34746       15.45811        1.58295
C        -12.22741       16.53730        1.84629
C        -11.95303       17.78991        1.44942
C        -12.75906       19.02422        1.58186
C        -14.10711       19.09461        1.62833
C        -14.81173       20.33658        1.63414
N        -15.39719       21.34777        1.64123
C        -14.94837       17.94115        1.58048
N        -15.61061       16.99727        1.53998
C        -11.80552       20.16890        1.43237
C        -10.58558       19.66005        0.96655
C        -10.61306       18.19860        0.90048
O         -9.69007       17.50288        0.52830
C         -9.47032       20.43411        0.69614
C         -9.54965       21.80299        0.93636
C        -10.75696       22.36397        1.44096
C        -11.88305       21.53450        1.68314
C        -10.78717       23.74426        1.69924
C         -9.66409       24.54564        1.46603
C         -8.49098       23.98457        0.97008
C         -8.43414       22.61885        0.70608
H         -1.96544       -2.17857       -2.50877
H         -5.41461        0.52415       -0.07741
H         -7.17611       -0.52296       -1.40594
H         -7.87821       -2.12493       -3.13418
H         -6.20308       -3.55128       -4.27562
H         -3.81124       -3.35040       -3.72649
H          0.39300        2.00907       -0.83062
H          1.70187        4.38904       -0.88337
H          2.72471        6.42668       -0.17503
H          1.54281        6.74126        1.08234
H          1.01144        6.91659       -1.92137
H          1.27498        8.28371       -0.84216
H         -0.76247        7.89137        0.38547
H         -4.58702        6.01384       -0.06920
H         -2.51463        7.54868        1.63836
H         -4.39643        8.54807        4.92013
H         -3.22135        7.69976        3.92135
H         -5.97996        6.57057        4.67981
H         -4.45123        6.17515        5.48910
H         -4.70261        5.71678        3.79805
H         -7.24385       11.98988       -1.43869
H         -7.70601       10.43116       -2.14614
H         -4.97676       11.81084       -2.45559
H         -6.27218       11.80054       -3.67023
H         -5.45160       10.30477       -3.25849
H         -8.70715       11.31716        0.70930
H         -6.49476       12.62518        2.42101
H        -13.13814       16.27170        2.36631
H         -8.55726       19.96509        0.33988
H        -12.78080       21.98961        2.09155
H        -11.68740       24.21374        2.09098
H         -9.70445       25.61211        1.67414
H         -7.61762       24.60726        0.79175
H         -7.50634       22.19468        0.32625
