97

C          2.49358        2.13415        4.41621
C          3.13513        2.19132        5.60492
C          3.78589        1.05936        6.16868
N          4.31167        0.12728        6.62478
C          3.11933        3.37041        6.41244
N          3.11422        4.33374        7.04815
C          2.32867        0.94001        3.54674
C          1.14974        1.10886        2.80545
C          0.73462        0.23191        1.82085
C          1.58147       -0.83245        1.49892
C          2.80188       -1.01732        2.21480
C          3.15588       -0.13651        3.26053
C          3.66078       -2.05585        1.82393
C          3.33985       -2.88230        0.74422
C          2.14608       -2.69903        0.05232
C          1.26700       -1.68624        0.43338
C          0.55936        2.43000        3.08039
O         -0.55560        2.79405        2.77905
C          1.63461        3.17417        3.81831
C          1.91285        4.48047        3.67138
C          1.17916        5.35412        2.81970
S         -0.17001        6.22406        3.42265
C         -0.41039        7.07455        1.93887
C          0.52574        6.67466        0.99782
C          1.44748        5.71462        1.51167
C          0.60043        7.20713       -0.33379
N          0.61241        7.64071       -1.41119
C         -1.46806        8.03079        1.86797
C         -2.10110        8.28051        0.70957
C         -3.23893        9.17454        0.61098
C         -4.30290        9.02541       -0.29452
C         -4.31105        8.15847       -1.36400
S         -5.82811        8.15494       -2.16407
C         -6.47507        9.33045       -1.09062
C         -5.52373        9.81664       -0.22422
C         -5.70013       10.88553        0.67888
N         -4.61795       11.03361        1.51169
N         -3.43841       10.17227        1.51192
C         -6.75172       11.89401        0.78811
C         -7.08953       12.43713        2.03474
C         -6.83801       11.91856        3.37037
O         -6.60158       10.76480        3.66110
O         -7.12075       12.93237        4.22402
C         -7.68387       13.98996        3.58655
O         -7.91927       15.08022        4.06286
C         -7.85240       13.57878        2.19793
C         -8.56056       14.15556        1.14368
C         -8.34005       13.54551       -0.09890
C         -7.40122       12.53191       -0.27574
C         -7.23230       12.38391       -1.71473
O         -6.35152       11.79877       -2.30314
O         -8.22828       13.07909       -2.29728
C         -8.96986       13.76936       -1.40433
O         -9.96056       14.40528       -1.68963
C         -9.55957       15.20446        1.38177
C         -9.90073       16.14048        0.48631
C        -11.00876       17.04772        0.63046
C        -12.30409       16.74205        0.81213
C        -13.45292       17.67176        0.85832
C        -13.43142       18.94029        1.33491
C        -14.60207       19.73641        1.44726
N        -15.56060       20.39090        1.53175
C        -12.24637       19.56242        1.82613
N        -11.27241       20.06273        2.21176
C        -14.65693       16.87656        0.47655
C        -14.30614       15.51932        0.46915
C        -12.87751       15.34798        0.77895
O        -12.33339       14.28098        0.97667
C        -15.19438       14.49947        0.16123
C        -16.50993       14.84414       -0.16587
C        -16.89644       16.21381       -0.18067
C        -15.95794       17.22241        0.13229
C        -18.22089       16.53915       -0.51199
C        -19.14736       15.54186       -0.82375
C        -18.76381       14.20409       -0.81366
C        -17.45271       13.85637       -0.48789
H         -0.17849        0.42922        1.26643
H          4.10615       -0.27293        3.77020
H          4.60484       -2.21866        2.34063
H          4.02829       -3.66593        0.43691
H          1.90210       -3.33825       -0.79275
H          0.34497       -1.55296       -0.12948
H          2.79938        4.91480        4.12534
H          2.27876        5.32332        0.93637
H         -1.78090        8.53071        2.78488
H         -1.83697        7.76594       -0.20430
H         -3.52231        7.52077       -1.73976
H         -7.50184        9.63278       -1.22958
H        -10.10521       15.14733        2.32447
H         -9.35888       16.27403       -0.44692
H        -10.70000       18.07395        0.45043
H        -14.85821       13.46615        0.16343
H        -16.27987       18.25790        0.08169
H        -18.54853       17.57716       -0.52617
H        -20.17057       15.81129       -1.07442
H        -19.48609       13.42916       -1.05866
H        -17.17424       12.80427       -0.48750
