108

C         -1.40623        5.27258       -3.06320
C         -0.44204        4.88116       -3.92767
C         -0.01023        5.73915       -4.98659
N          0.34037        6.45769       -5.82791
C          0.17180        3.59623       -3.91043
N          0.69765        2.56418       -3.98612
C         -2.20915        6.50592       -3.20790
C         -3.52113        6.20952       -2.80710
C         -4.52502        7.15065       -2.74536
C         -4.15401        8.48419       -2.93673
C         -2.78769        8.82617       -3.18328
C         -1.82122        7.82279       -3.36058
C         -2.41535       10.17514       -3.18849
C         -3.37057       11.17390       -2.99966
C         -4.71191       10.83892       -2.83066
C         -5.10265        9.50122       -2.79858
C         -3.52648        4.90755       -2.10902
O         -4.48001        4.27305       -1.71771
C         -2.06266        4.60567       -1.92892
C         -1.61216        4.27693       -0.68601
C         -0.19654        4.15471       -0.28203
C          0.44108        3.15445        0.51532
C          1.85980        3.25223        0.55343
C          2.60873        4.27271       -0.06054
C          1.92050        5.26932       -0.75819
C          0.56360        5.21687       -0.80582
N          2.50126        6.29129       -1.40345
C          3.83700        6.34675       -1.30858
C          4.54651        5.39904       -0.60125
N          3.95372        4.34627        0.01811
C         -0.18840        2.09021        1.40040
N         -1.43804        1.44024        1.21004
C         -2.10107        0.89758        0.03854
C         -2.00508        1.56719       -1.28582
C         -1.78988        0.66762        2.34333
O         -2.78292       -0.01885        2.47841
C         -0.63730        0.77956        3.22945
C          0.31785        1.66189        2.59734
C          1.48098        1.69340        3.55315
O          2.55124        2.24699        3.39826
N          1.09318        0.84010        4.61902
C          2.01923        0.42766        5.67698
C          1.67490        0.92702        7.07904
C         -0.16585        0.28714        4.38172
C         -0.76501       -0.68262        5.26997
C         -1.90484       -1.34419        5.03589
C         -2.47309       -2.26361        5.94481
S         -4.16711       -2.52500        5.85598
C         -4.12708       -3.69267        7.10176
C         -2.84961       -3.86779        7.58569
C         -1.89854       -3.04751        6.91628
C         -2.51455       -4.77959        8.62496
N         -2.21413       -5.51378        9.47718
C         -5.34653       -4.32513        7.45169
C         -6.10970       -3.81355        8.42589
C         -7.40753       -4.34705        8.75569
C         -8.46805       -4.44117        7.93621
C         -9.83581       -4.91051        8.25455
C        -10.18307       -5.83140        9.17981
C        -11.51037       -6.29370        9.34076
N        -12.60429       -6.65231        9.48425
C         -9.23211       -6.49652       10.02855
N         -8.48206       -7.02605       10.71822
C        -10.73289       -4.31388        7.21630
C         -9.93906       -3.75978        6.20558
C         -8.51723       -3.86817        6.54100
O         -7.61709       -3.52973        5.80473
C        -10.44706       -3.13501        5.07610
C        -11.83321       -3.03222        4.94968
C        -12.67446       -3.55871        5.96927
C        -12.11143       -4.19683        7.09933
C        -14.06369       -3.42394        5.83324
C        -14.61587       -2.78762        4.71939
C        -13.78830       -2.27807        3.72298
C        -12.40396       -2.39904        3.83682
H         -5.52462        6.86638       -2.43090
H         -0.77539        8.08393       -3.50448
H         -1.37298       10.46246       -3.31323
H         -3.06602       12.21714       -2.98475
H         -5.45550       11.62093       -2.70256
H         -6.15177        9.26119       -2.63944
H         -2.33218        4.06162        0.10473
H          2.45075        2.51361        1.08962
H          0.08991        6.05908       -1.30209
H          4.31059        7.18236       -1.80887
H          5.62276        5.46333       -0.50600
H         -3.17430        0.86790        0.28480
H         -1.79557       -0.15033       -0.07187
H         -2.70443        2.38947       -1.22305
H         -2.39992        0.97862       -2.11300
H         -0.98316        1.85865       -1.52449
H          3.02701        0.77890        5.42874
H          2.06867       -0.66860        5.67927
H          1.77252        2.01379        7.14932
H          2.35796        0.47944        7.81189
H          0.65869        0.66784        7.38763
H         -0.24965       -0.88104        6.20281
H         -2.47390       -1.20031        4.13522
H         -0.83481       -3.06105        7.11931
H         -5.67778       -5.16207        6.84221
H         -5.77100       -2.96809        9.02242
H         -7.47495       -4.62471        9.80433
H         -9.77010       -2.72245        4.33254
H        -12.78553       -4.56520        7.86590
H        -14.73443       -3.81274        6.59725
H        -15.69499       -2.68949        4.63053
H        -14.21960       -1.78323        2.85633
H        -11.77377       -1.98953        3.04951
