110

C          3.69630        2.62632       -0.71767
C          3.77605        1.56972        0.12583
C          5.02485        1.08348        0.60719
N          6.04766        0.69842        0.99340
C          2.62584        0.83249        0.52738
N          1.67134        0.25246        0.85931
C          4.82911        3.40675       -1.29462
C          4.37648        4.00448       -2.47692
C          5.12793        4.84849       -3.27270
C          6.40947        5.16301       -2.83787
C          6.90721        4.59742       -1.62654
C          6.11108        3.70892       -0.86426
C          8.19215        4.96680       -1.20303
C          8.95876        5.87143       -1.94350
C          8.46147        6.41556       -3.12458
C          7.19264        6.05922       -3.57403
C          2.96685        3.70446       -2.69114
O          2.40055        3.83301       -3.75338
C          2.48001        3.13494       -1.39331
C          1.28911        3.37311       -0.81622
C          0.30799        4.27966       -1.31697
S         -0.61407        5.15582       -0.16239
C         -1.35326        6.16037       -1.34747
C         -0.92420        5.80332       -2.61198
C         -0.07495        4.65928       -2.58781
C         -1.27577        6.48913       -3.82804
N         -1.49858        7.04401       -4.81937
C         -2.24454        7.20375       -0.97196
C         -3.05359        7.10587        0.09376
C         -4.03968        8.08469        0.43988
N         -4.43971        8.34290        1.75048
C         -3.87430        7.75033        2.94881
C         -4.53878        6.43719        3.33734
C         -5.47539        9.30374        1.79201
O         -6.05512        9.77853        2.74718
C         -5.69782        9.61057        0.36359
C         -4.77056        8.82320       -0.39792
C         -4.98735        9.10607       -1.82649
O         -4.38966        8.63720       -2.77235
N         -6.02925       10.04510       -1.79985
C         -6.48878       10.70229       -3.00791
C         -5.65889       11.93031       -3.35850
C         -6.44051       10.31483       -0.49360
C         -7.53410       11.19191       -0.20760
C         -7.44392       12.20583        0.66195
C         -8.46436       13.16355        0.93097
C         -9.46512       13.49915        0.04283
O        -10.29596       14.42182        0.58064
C         -9.83276       14.68076        1.83027
C         -8.68004       13.95987        2.10448
C         -7.98210       14.04873        3.39345
O         -8.61508       14.27518        4.42190
C         -6.52960       13.91613        3.35196
C         -5.64084       14.28004        2.36055
C         -4.29673       13.93205        2.66956
C         -4.14524       13.35903        3.91818
S         -5.68762       13.27244        4.70311
C         -2.97296       12.95374        4.63362
C         -1.86414       12.39308        4.11383
C         -0.61887       11.98324        4.83320
C         -0.04557       12.59321        5.90214
C          1.21733       12.20625        6.43438
N          2.24718       11.88686        6.87311
C         -0.61974       13.74097        6.52412
N         -1.07763       14.68467        7.02204
C          0.04610       10.94867        3.98580
C         -0.55872       10.96750        2.72610
C         -1.71536       11.86653        2.70853
O         -2.39024       12.05465        1.71773
C         -0.13939       10.19173        1.65658
C          0.93107        9.31966        1.85484
C          1.53840        9.22894        3.13810
C          1.08134       10.04494        4.20012
C          2.59777        8.32562        3.31635
C          3.05785        7.54117        2.25467
C          2.46686        7.64602        0.99895
C          1.40660        8.52878        0.80059
H          4.69530        5.28140       -4.16995
H          6.50552        3.31548        0.06844
H          8.60906        4.56138       -0.28258
H          9.94800        6.15673       -1.59350
H          9.05894        7.12178       -3.69579
H          6.81704        6.49955       -4.49592
H          1.12250        3.03374        0.20526
H          0.29306        4.20609       -3.49716
H         -2.29991        8.06745       -1.63138
H         -3.02923        6.22756        0.73159
H         -3.99341        8.46182        3.77363
H         -2.79760        7.60358        2.80640
H         -5.61418        6.56654        3.49374
H         -4.10168        6.05456        4.26595
H         -4.40403        5.67233        2.56613
H         -7.54438       10.97093       -2.90872
H         -6.41242        9.98485       -3.83265
H         -5.69246       12.67887       -2.56034
H         -6.03956       12.39256       -4.27536
H         -4.60898       11.66637       -3.52530
H         -8.45424       11.00196       -0.75106
H         -6.49968       12.30083        1.18551
H         -9.71374       13.18478       -0.96298
H        -10.41304       15.39620        2.39436
H         -5.93688       14.73107        1.41970
H         -3.47594       14.11528        1.98758
H         -3.02704       13.13108        5.70546
H         -0.64517       10.27038        0.69883
H          1.55729        9.94084        5.17026
H          3.08506        8.22971        4.28504
H          3.88660        6.85489        2.40881
H          2.83175        7.04584        0.16947
H          0.95789        8.59843       -0.18853
