102

C          0.71177        0.97154        1.50285
C         -0.09400        0.29017        0.66338
C         -0.89702       -0.80002        1.12437
N         -1.51299       -1.70019        1.49801
C         -0.03045        0.50321       -0.74521
N          0.04023        0.67683       -1.89070
C          0.93447        0.70851        2.93580
C          2.31096        0.84069        3.18018
C          2.85676        0.77266        4.44654
C          1.96735        0.75548        5.52787
C          0.55606        0.76835        5.30067
C          0.04301        0.67589        3.99304
C         -0.30212        0.96313        6.39222
C          0.20851        1.11604        7.68272
C          1.57949        1.02825        7.90793
C          2.45391        0.83974        6.83798
C          2.96369        1.44663        1.98981
O          4.14060        1.68340        1.82833
C          1.80232        1.85537        1.11978
C          1.82011        3.08871        0.58897
C          0.68309        3.97212        0.24911
C          0.84939        4.88343       -0.79786
C         -0.09788        5.88932       -1.02909
F          0.16700        6.78068       -1.99619
C         -1.25640        6.01459       -0.25164
C         -1.42968        5.09736        0.79070
C         -0.46670        4.11165        1.04353
F         -0.65200        3.33827        2.12332
C         -2.20670        7.11805       -0.44126
N         -2.80962        7.49117       -1.65009
C         -2.78133        6.77418       -2.90857
C         -3.93332        5.78785       -3.02928
C         -3.65359        8.61521       -1.48811
O         -4.36150        9.18041       -2.29665
C         -3.51908        8.92036       -0.05774
C         -2.62801        7.95070        0.52229
C         -2.53457        8.24728        1.96529
O         -1.89367        7.63126        2.79670
N         -3.39656        9.35482        2.11781
C         -3.68482        9.92437        3.42034
C         -2.61752       10.89247        3.90368
C         -3.94318        9.75321        0.89589
C         -4.84112       10.86758        0.73069
C         -4.57798       11.89225       -0.09927
C         -5.49185       13.01934       -0.32802
C         -6.45252       12.94290       -1.34093
C         -7.31841       14.01933       -1.57349
F         -8.25089       13.89261       -2.52933
C         -7.25295       15.19561       -0.81315
C         -6.27976       15.27586        0.19087
C         -5.41280       14.19841        0.42247
F         -4.49301       14.31605        1.39282
C         -8.24209       16.28045       -0.99465
C         -8.17693       17.32955       -1.83361
C         -9.10431       18.48137       -1.99254
C        -10.45455       18.46711       -1.86393
C        -11.27497       19.58763       -2.19405
N        -11.93855       20.49909       -2.45969
C        -11.17165       17.30178       -1.46878
N        -11.76280       16.35878       -1.13632
C         -8.29855       19.60134       -2.57107
C         -7.07858       19.06911       -3.00703
C         -6.98763       17.63423       -2.69581
O         -6.12404       16.88146       -3.09132
C         -6.09129       19.82138       -3.62233
C         -6.32715       21.18215       -3.83151
C         -7.54904       21.76422       -3.39152
C         -8.52066       20.96601       -2.74137
C         -7.76415       23.13190       -3.63294
C         -6.80622       23.90427       -4.29556
C         -5.61109       23.32814       -4.71553
C         -5.37017       21.97579       -4.47988
H          3.92745        0.88652        4.58762
H         -1.02859        0.72416        3.81655
H         -1.37673        1.05050        6.24318
H         -0.46521        1.31485        8.51263
H          1.97348        1.13768        8.91519
H          3.52367        0.80632        7.03421
H          2.78381        3.60255        0.54803
H          1.73944        4.86070       -1.42227
H         -2.28148        5.16676        1.46442
H         -1.83216        6.25464       -3.04218
H         -2.86230        7.50845       -3.71922
H         -3.90309        5.04590       -2.22512
H         -3.88075        5.25993       -3.98664
H         -4.90014        6.29965       -2.97705
H         -3.75248        9.09720        4.13672
H         -4.66308       10.41526        3.40623
H         -1.64054       10.40391        3.97609
H         -2.87901       11.27023        4.89831
H         -2.52035       11.74773        3.22842
H         -5.76600       10.83630        1.30166
H         -3.65449       11.92815       -0.67286
H         -6.53614       12.05369       -1.96124
H         -6.18354       16.15981        0.81445
H         -9.08467       16.16067       -0.31884
H         -5.16476       19.34684       -3.93239
H         -9.42909       21.44941       -2.39244
H         -8.69192       23.60983       -3.32155
H         -6.99571       24.95769       -4.48938
H         -4.86684       23.92880       -5.23342
H         -4.43100       21.54255       -4.81892
