108

C          7.11096        9.82772        1.26811
C          7.54891        9.44101        0.04850
C          7.22037        8.15741       -0.49404
N          6.95161        7.11180       -0.90780
C          8.52049       10.20039       -0.66327
N          9.35486       10.77123       -1.23797
C          6.54702        8.90271        2.26687
C          7.20843        9.15622        3.48015
C          6.95953        8.42567        4.62567
C          5.89798        7.50739        4.59273
C          5.12411        7.35247        3.40310
C          5.48876        8.01655        2.22050
C          3.96773        6.56514        3.44106
C          3.57306        5.92938        4.61680
C          4.37430        6.00643        5.75069
C          5.53514        6.78260        5.73718
C          7.97003       10.43161        3.37082
O          8.65752       10.95708        4.21718
C          7.55153       10.98770        2.03339
C          7.24310       12.29315        1.92548
C          6.35080       12.89565        0.93989
C          6.62644       13.91423        0.08757
N          7.88156       14.62416        0.03035
O          7.83551       15.79217       -0.38035
O          8.91177       14.03110        0.36840
C          5.54936       14.15172       -0.85181
C          4.57878       13.24959       -0.63597
C          4.95499       12.48517        0.55861
C          4.09430       11.69084        1.23047
C          4.14935       11.43492        2.66688
C          3.13685       10.60823        2.97044
C          2.42020       10.28361        1.75342
N          1.46491        9.18866        1.69072
O          1.57076        8.31725        2.56228
O          0.59669        9.17645        0.81414
C          2.89919       10.97758        0.69414
C          2.54303       10.79758       -0.69312
C          1.30304       10.98554       -1.16777
C          1.00925       10.59596       -2.49326
C          0.97503       11.33740       -3.64583
C          0.69804       10.53941       -4.81652
N          0.66478       11.06064       -6.07809
C          0.91010       12.40287       -6.06112
C          1.16761       13.18151       -4.91790
C          1.38114       14.65881       -5.05239
N          1.22291       12.67668       -3.65831
C          0.48924        9.20395       -4.51743
S          0.62767        8.95769       -2.81564
C          0.23564        8.03809       -5.38283
C         -0.52391        6.94251       -4.94050
C         -0.70682        5.82958       -5.77225
N         -1.47726        4.71769       -5.24014
O         -1.09390        4.23122       -4.16750
O         -2.49203        4.37617       -5.86363
C         -0.16618        5.77987       -7.06196
C          0.59094        6.87011       -7.49994
C          0.78915        7.97985       -6.67056
C         -0.31725        4.64564       -7.96954
C          0.52568        3.60513       -7.92541
C          0.34857        2.45961       -8.78842
C          0.79398        1.21847       -8.55981
C          0.71490        0.01483       -9.42320
C         -0.24236       -0.26951      -10.33599
C         -0.28088       -1.50267      -11.04862
N         -0.30697       -2.50271      -11.63382
C         -1.32600        0.61604      -10.63239
N         -2.20031        1.33334      -10.88241
C          1.78739       -0.90628       -8.94510
C          2.27111       -0.42882       -7.71565
C          1.63231        0.84281       -7.36978
O          1.79752        1.44249       -6.32901
C          3.27151       -1.04402       -6.98738
C          3.86128       -2.19772       -7.51841
C          3.42298       -2.69180       -8.78230
C          2.38382       -2.04015       -9.48249
C          4.04350       -3.83457       -9.30206
C          5.07070       -4.47055       -8.61405
C          5.50039       -3.98038       -7.37842
C          4.89728       -2.84769       -6.84147
H          7.51278        8.62939        5.53760
H          4.90061        7.88986        1.31546
H          3.32891        6.47117        2.56467
H          2.63780        5.37462        4.64021
H          4.08375        5.47484        6.65321
H          6.13847        6.83499        6.64086
H          7.58784       12.97310        2.70772
H          5.54068       14.94159       -1.58896
H          3.62996       13.22888       -1.15218
H          4.78660       11.92829        3.38445
H          2.84220       10.26902        3.95262
H          3.34178       10.47484       -1.36096
H          0.48213       11.32748       -0.54347
H          0.89429       12.86807       -7.04390
H          2.22006       14.86338       -5.72341
H          1.60756       15.10673       -4.07856
H          0.47595       15.13418       -5.44161
H         -0.97839        6.93782       -3.95108
H          1.04531        6.86464       -8.48910
H          1.39972        8.79898       -7.04713
H         -1.17689        4.67241       -8.63472
H          1.35302        3.60320       -7.21706
H         -0.18869        2.69529       -9.70318
H          3.59738       -0.61676       -6.04223
H          2.09262       -2.43218      -10.45237
H          3.72777       -4.24277      -10.26519
H          5.53913       -5.36187       -9.03555
H          6.30266       -4.47924       -6.84562
H          5.25149       -2.47189       -5.87906
