118

C          2.32154        9.64185        0.69578
C          3.51671       10.26479        0.82817
C          3.64136       11.68636        0.87443
N          3.74793       12.84131        0.88537
C          4.73917        9.53778        0.85557
N          5.72113        8.92032        0.88646
C          0.97537       10.31241        0.61487
C          0.06806        9.36084        0.13747
C         -1.29640        9.55238        0.04243
C         -1.80604       10.79886        0.37757
C         -0.92821       11.83829        0.79400
C          0.46619       11.57029        0.94318
C         -1.49499       13.10527        1.03591
C         -2.87222       13.32430        0.88703
C         -3.71678       12.27838        0.52837
C         -3.18479       11.01839        0.28111
C          0.73327        8.10287       -0.18363
O          0.26265        7.22000       -0.86744
C          2.08038        8.18375        0.45902
C          2.66058        7.05206        0.92472
C          2.08873        5.71376        0.83013
C          1.33194        5.09217        1.83095
C          0.92254        5.41314        3.20413
O          0.78815        4.51558        4.05120
C          0.61134        6.83699        3.63014
F          0.77410        7.79544        2.68652
F         -0.67981        6.97216        4.05044
F          1.39049        7.22917        4.68000
S          0.78071        3.52906        1.31499
C          1.61357        3.62209       -0.14670
C          2.27663        4.81926       -0.30177
C          3.12246        5.02209       -1.44054
C          2.92336        4.49116       -2.65999
C          3.82633        4.49872       -3.78029
N          4.84197        5.43046       -4.04677
C          5.25377        6.59276       -3.28864
C          4.20168        7.68465       -3.15754
C          5.57077        5.07178       -5.20046
O          6.55124        5.59245       -5.69386
C          4.85895        3.88214       -5.67801
C          3.82114        3.56516       -4.74634
C          3.18632        2.30799       -5.21848
O          2.31162        1.67826       -4.65863
N          3.87463        2.02899       -6.42529
C          3.70306        0.78520       -7.16616
C          3.33384        0.96050       -8.63538
C          4.84594        2.99772       -6.67238
C          5.72481        2.97940       -7.79730
C          6.18096        4.09015       -8.39699
C          7.14901        4.05744       -9.48837
C          8.23036        3.16245       -9.52751
C          8.70966        2.27760       -8.44594
O          8.43422        2.37366       -7.26649
S          9.82150        1.07894       -9.05313
C          9.89598        1.86133      -10.61062
O         10.51435        1.40730      -11.55448
C          9.02373        3.04113      -10.66802
C          8.90108        3.93027      -11.74139
C          7.89330        4.88894      -11.64381
C          7.02639        4.92631      -10.57664
C          6.03482        5.95374      -10.86128
O          5.04442        6.22069      -10.21386
O          6.41233        6.53180      -12.02883
C          7.51032        5.94554      -12.56970
O          8.02219        6.22311      -13.63359
C          9.83744        3.93176      -12.85717
C         10.93053        4.70138      -12.78153
C         11.84491        4.86647      -13.88204
C         12.15861        6.05951      -14.41129
C         12.98529        6.37040      -15.59053
C         14.11804        5.72672      -15.95433
C         14.91878        6.15760      -17.05741
N         15.57010        6.49623      -17.95045
C         14.63737        4.62578      -15.22007
N         15.06501        3.72978      -14.61545
C         12.44115        7.63860      -16.15699
C         11.55581        8.19338      -15.21953
C         11.44384        7.32793      -14.03531
O         10.90727        7.61679      -12.98561
C         10.84695        9.36282      -15.43538
C         11.02207       10.02453      -16.65468
C         11.91699        9.49127      -17.62672
C         12.61669        8.29244      -17.36885
C         12.07724       10.17406      -18.84360
C         11.36949       11.34844      -19.10409
C         10.48867       11.85922      -18.15495
C         10.31563       11.20158      -16.93745
H         -1.93334        8.73599       -0.28475
H          1.09879       12.36752        1.32521
H         -0.86804       13.94755        1.32256
H         -3.28995       14.31524        1.05008
H         -4.78693       12.44136        0.42561
H         -3.85509       10.20913       -0.00335
H          3.57776        7.11147        1.50596
H          1.60466        2.77034       -0.81601
H          4.02511        5.57642       -1.23142
H          2.01484        3.91067       -2.83879
H          6.11731        7.04434       -3.79134
H          5.63290        6.26341       -2.31706
H          3.80757        7.97474       -4.13567
H          4.64628        8.56769       -2.68688
H          3.35261        7.38828       -2.53971
H          2.92517        0.18474       -6.68135
H          4.63595        0.21315       -7.08092
H          2.35066        1.42758       -8.73674
H          3.30885       -0.01335       -9.13608
H          4.04669        1.57874       -9.18600
H          6.04047        1.99244       -8.12134
H          5.83761        5.07524       -8.08187
H          9.58076        3.35372      -13.74003
H         11.13595        5.30732      -11.89897
H         12.22586        3.93735      -14.29918
H         10.15674        9.72649      -14.67841
H         13.26552        7.89468      -18.14431
H         12.75613        9.79434      -19.60505
H         11.50262       11.86414      -20.05215
H          9.93416       12.77056      -18.36470
H          9.61747       11.61535      -16.21124
