106

C         -2.04632        3.30237       -3.11500
C         -1.35289        3.46963       -4.26488
C         -1.84183        4.29649       -5.32036
N         -2.30261        4.94106       -6.16407
C         -0.18932        2.70024       -4.57221
N          0.72978        2.04067       -4.83106
C         -3.42096        3.78630       -2.87134
C         -4.09564        2.80534       -2.13054
C         -5.44109        2.90011       -1.82373
C         -6.12150        4.06844       -2.20398
C         -5.41690        5.12510       -2.85420
C         -4.06234        4.96981       -3.19372
C         -6.08850        6.31987       -3.14882
C         -7.43988        6.47098       -2.83987
C         -8.13989        5.42541       -2.24433
C         -7.48598        4.23299       -1.92645
C         -3.12947        1.78790       -1.64845
O         -3.37616        0.79883       -0.99400
C         -1.78354        2.31575       -2.06236
C         -0.71337        2.08108       -1.28362
C          0.54328        2.83278       -1.28003
N          1.50228        2.41680       -0.44044
C          2.64801        3.12741       -0.44827
C          2.86103        4.22138       -1.25049
C          1.80173        4.57716       -2.04836
N          0.63017        3.92197       -2.05818
C          1.90789        5.69516       -2.97493
C          1.53856        6.94056       -2.64216
C          1.64015        8.07071       -3.52577
N          1.88257        9.37299       -3.07858
C          2.20703        9.77553       -1.72057
C          1.21144       10.75953       -1.12450
C          1.95167       10.28360       -4.15649
O          2.17993       11.47517       -4.13840
C          1.71124        9.42259       -5.33457
C          1.50797        8.08274       -4.85743
C          1.26079        7.22020       -6.02591
O          1.04971        6.02382       -6.01933
N          1.36325        8.11833       -7.10917
C          1.22899        7.66617       -8.48298
C          2.35891        6.73601       -8.90463
C          1.63880        9.41613       -6.66921
C          1.77257       10.54322       -7.54791
C          2.56601       11.59366       -7.29068
C          2.67515       12.77118       -8.13785
N          1.98608       12.81569       -9.28865
C          2.11276       13.94755       -9.99916
C          2.88815       15.01286       -9.60543
C          3.55337       14.86170       -8.40812
N          3.45775       13.74604       -7.66782
C          4.39648       15.93527       -7.87024
C          5.09308       15.80071       -6.73019
C          5.92103       16.85609       -6.19652
C          7.00338       16.69533       -5.41962
C          7.86843       17.71378       -4.78452
C          8.06642       18.99441       -5.19913
C          9.00207       19.86140       -4.58643
N          9.76752       20.57991       -4.08567
C          7.39604       19.55613       -6.32961
N          6.85804       20.01973       -7.24516
C          8.63753       17.00821       -3.71538
C          8.45635       15.63001       -3.87982
C          7.50502       15.35347       -4.95892
O          7.21871       14.24264       -5.35338
C          9.05210       14.66952       -3.07778
C          9.85273       15.10163       -2.01958
C         10.03030       16.49539       -1.79488
C          9.41790       17.43980       -2.65112
C         10.81340       16.90631       -0.70536
C         11.40937       15.96990        0.14276
C         11.23774       14.60803       -0.08742
C         10.46465       14.17518       -1.16379
H         -5.93367        2.10325       -1.27424
H         -3.52910        5.78002       -3.68411
H         -5.56357        7.14795       -3.62178
H         -7.94672        7.40483       -3.07027
H         -9.19705        5.54087       -2.01869
H         -8.05384        3.43377       -1.45469
H         -0.77973        1.34127       -0.48850
H          3.42059        2.77351        0.22760
H          3.79983        4.75677       -1.25924
H          2.29350        5.43565       -3.95619
H          1.13900        7.12996       -1.64904
H          3.20264       10.23462       -1.73396
H          2.26893        8.89942       -1.07014
H          1.27444       11.73772       -1.61187
H          1.42530       10.90692       -0.06032
H          0.18338       10.39711       -1.22088
H          1.18804        8.51326       -9.17288
H          0.27566        7.13178       -8.56738
H          3.32179        7.25601       -8.88633
H          2.18645        6.36537       -9.92021
H          2.43588        5.86792       -8.24271
H          1.17656       10.54411       -8.45651
H          3.17403       11.64959       -6.39286
H          1.54675       13.97456      -10.92483
H          2.96019       15.90856      -10.20464
H          4.45761       16.84796       -8.45420
H          5.04308       14.86674       -6.17037
H          5.55839       17.84510       -6.45695
H          8.86838       13.61506       -3.26691
H          9.55874       18.49408       -2.43479
H         10.96573       17.96468       -0.50219
H         12.00854       16.30567        0.98558
H         11.70274       13.88058        0.57326
H         10.33857       13.10616       -1.32452
