84

C          2.02338        0.49386       -0.50114
C          1.58870       -0.66817        0.03235
C          2.32148       -1.87929       -0.10149
N          2.92756       -2.86565       -0.21952
C          0.32322       -0.77377        0.68044
N         -0.69996       -0.83562        1.21871
C          3.24955        0.69579       -1.31565
C          3.01062        1.76474       -2.19008
C          3.96918        2.29058       -3.03611
C          5.26751        1.78350       -2.93867
C          5.55436        0.72430       -2.02594
C          4.52664        0.16089       -1.23860
C          6.88294        0.29680       -1.88773
C          7.90889        0.90264       -2.61718
C          7.62033        1.92409       -3.51782
C          6.30543        2.35509       -3.68628
C          1.69535        2.36226       -1.90952
O          1.10859        3.15812       -2.60925
C          1.27681        1.76416       -0.59510
C          0.60823        2.37957        0.39588
C          0.14929        3.73189        0.38114
S         -1.22188        4.16133        1.33214
C         -1.18823        5.81855        0.84527
C         -0.09002        6.04402        0.03031
C          0.67175        4.86262       -0.21568
C          0.27815        7.31441       -0.52104
N          0.56382        8.34369       -0.98283
C         -2.22613        6.68325        1.32509
C         -2.67816        7.69960        0.57416
C         -3.72749        8.56938        0.97990
S         -4.68544        9.28879       -0.24648
C         -5.65350       10.16424        0.86793
C         -6.65092       11.07651        0.33549
O         -7.71107       11.38537        0.85662
O         -6.27801       11.62203       -0.85441
C         -5.28510        9.87471        2.17088
C         -4.14070        9.00656        2.22443
C         -5.89976       10.43897        3.40848
O         -5.21338       10.64826        4.57582
C         -6.10767       11.24617        5.44707
N         -7.32611       11.29398        4.92977
C         -7.19886       10.81318        3.65313
C         -5.73211       11.72227        6.72762
N         -6.54643       11.76090        7.86142
C         -7.91561       11.29589        7.95666
C         -8.93357       12.37936        7.63826
C         -5.85854       12.28548        8.96959
O         -6.24720       12.44979       10.10775
C         -4.52053       12.58164        8.41880
C         -4.52645       12.20830        7.02757
C         -3.19529       12.50207        6.47416
O         -2.81765       12.34033        5.33247
N         -2.49854       13.00483        7.59436
C         -1.10868       13.41156        7.50883
C         -0.15062       12.25627        7.75802
C         -3.30838       13.04451        8.73588
C         -2.83043       13.46624       10.02577
C         -3.58628       14.01951       10.98294
H          3.72750        3.13214       -3.67909
H          4.76880       -0.62483       -0.52795
H          7.14029       -0.49468       -1.18657
H          8.93811        0.58187       -2.47477
H          8.42147        2.39664       -4.08097
H          6.10439        3.16435       -4.38583
H          0.46408        1.85863        1.34034
H          1.56759        4.86430       -0.82584
H         -2.68104        6.45848        2.28814
H         -2.28083        7.86671       -0.42368
H         -5.39636       11.31038       -1.13877
H         -3.66094        8.70467        3.14980
H         -8.06293       10.73636        3.01002
H         -8.08267       10.95608        8.98602
H         -8.05645       10.42326        7.31144
H         -8.75350       13.28600        8.22486
H         -9.94457       12.02251        7.86083
H         -8.90117       12.65584        6.58070
H         -0.91793       14.22559        8.21559
H         -0.92651       13.81089        6.50406
H         -0.30656       11.81809        8.74882
H          0.88572       12.60447        7.69932
H         -0.28474       11.46160        7.01664
H         -1.77542       13.31283       10.23749
H         -4.64973       14.20257       10.85948
H         -3.15869       14.29569       11.94107
