86

C          1.13449        0.49394       -0.19141
C          0.50721        0.89197       -1.32647
C          1.21342        1.20092       -2.52327
N          1.80175        1.44410       -3.49714
C         -0.91443        0.88733       -1.44025
N         -2.07309        0.82040       -1.54880
C          2.56471        0.10979       -0.07416
C          2.67351       -0.83620        0.95926
C          3.86468       -1.43703        1.32113
C          5.02076       -1.05809        0.63279
C          4.94892       -0.07059       -0.39181
C          3.71259        0.51209       -0.73726
C          6.12710        0.31730       -1.04471
C          7.35275       -0.25731       -0.70353
C          7.41816       -1.22820        0.29196
C          6.26002       -1.62689        0.95833
C          1.38585       -0.98994        1.65749
O          1.13927       -1.73396        2.58261
C          0.50255        0.05821        1.06259
C         -0.40879        0.59166        1.88985
C         -0.96729        1.87772        1.68805
S         -2.18858        2.46576        2.74996
C         -2.23093        3.90684        1.80282
N         -1.33826        3.91786        0.83429
N         -0.60227        2.76629        0.78497
C         -3.17144        4.91557        2.11550
C         -3.23094        6.03884        1.38283
C         -4.19057        7.10266        1.66241
C         -4.65847        7.42051        2.95106
F         -4.22308        6.70211        4.00048
C         -5.56711        8.45358        3.21795
F         -5.94257        8.63504        4.49615
C         -6.10868        9.28222        2.22257
C         -5.68036        9.02086        0.88769
C         -4.69199        7.91207        0.60148
N         -4.39504        7.81474       -0.70667
S         -5.26982        8.97410       -1.50103
N         -6.05133        9.67284       -0.22869
C         -7.02297       10.37314        2.54787
C         -7.97198       10.82266        1.71328
C         -8.89271       11.89735        2.04607
C         -9.43347       12.72399        1.07817
N        -10.37462       13.65579        1.33235
C        -10.81066       13.69717        2.60352
N        -10.32020       13.00196        3.63609
C         -9.37394       12.10229        3.32379
C        -11.89154       14.61711        2.90326
C        -13.20038       14.33292        2.83384
C        -14.34551       15.25403        2.99226
C        -14.40214       16.34087        3.80084
C        -15.58538       17.11499        3.96340
N        -16.54419       17.75095        4.09350
C        -13.30397       16.76350        4.60884
N        -12.41528       17.11895        5.26210
C        -15.48403       14.64246        2.24272
C        -15.13668       13.32487        1.91367
C        -13.77469       13.01816        2.38010
O        -13.28888       11.90856        2.43298
C        -15.97116       12.46107        1.21933
C        -17.22649       12.93161        0.82095
C        -17.60870       14.26672        1.13141
C        -16.72455       15.11672        1.83341
C        -18.87452       14.71842        0.72833
C        -19.74647       13.87891        0.03178
C        -19.36571       12.57618       -0.27672
C        -18.11281       12.10439        0.11458
H          3.88681       -2.15441        2.13628
H          3.68592        1.28274       -1.50222
H          6.10308        1.07329       -1.82702
H          8.25780        0.05509       -1.21794
H          8.37425       -1.67496        0.55371
H          6.33385       -2.38351        1.73611
H         -0.63028        0.09315        2.83259
H         -3.84165        4.73924        2.95160
H         -2.56579        6.19023        0.53309
H         -6.89086       10.80261        3.53998
H         -8.12487       10.38424        0.72987
H         -9.14017       12.64478        0.03304
H         -9.02437       11.50755        4.16193
H        -11.51166       15.59672        3.15766
H        -15.63972       11.45208        0.98979
H        -17.04004       16.13671        2.02885
H        -19.19877       15.73181        0.95820
H        -20.72514       14.24406       -0.26969
H        -20.04509       11.92494       -0.82117
H        -17.83498       11.08251       -0.13670
