115

C          1.75184        2.94487       -0.67531
C          0.60414        2.77901       -1.36845
C          0.59989        2.40911       -2.74128
N          0.62786        2.13330       -3.87302
C         -0.65757        2.80876       -0.71501
N         -1.68060        2.78022       -0.16624
C          3.08938        2.49713       -1.12725
C          3.76954        2.01347        0.00174
C          5.03437        1.46527       -0.05907
C          5.69776        1.50158       -1.29078
C          5.08227        2.12389       -2.41715
C          3.75335        2.57729       -2.33863
C          5.82643        2.29412       -3.59229
C          7.12438        1.79212       -3.68844
C          7.68849        1.10217       -2.61864
C          6.98522        0.96838       -1.42158
C          3.02535        2.36467        1.22939
O          3.32426        2.09346        2.37097
C          1.91015        3.24775        0.74869
C          1.59065        4.31158        1.50899
C          0.81919        5.49441        1.15103
C         -0.01996        6.20153        1.95861
N         -0.17237        6.03499        3.39069
O         -1.20055        6.50332        3.89915
O          0.74786        5.51544        4.03210
C         -0.95372        6.98271        1.16693
C         -0.64407        6.81307       -0.12840
C          0.67603        6.19921       -0.17715
C          1.62745        6.38983       -1.13016
C          2.97290        5.82984       -1.00002
C          3.54908        5.84729       -2.20734
C          2.67750        6.54913       -3.12212
N          3.08907        6.83211       -4.48706
O          2.23053        7.16879       -5.30807
O          4.28190        6.63502       -4.76107
C          1.60534        7.08163       -2.47461
C          0.99412        8.32951       -2.92671
C          0.02083        9.03460       -2.34715
C         -0.40368       10.34578       -2.70932
N         -0.75178       11.30706       -1.75542
C         -0.81207       11.16187       -0.30923
C          0.42504       10.58864        0.37165
C         -1.23867       12.47526       -2.37761
O         -1.67853       13.48858       -1.87455
C         -1.11029       12.16168       -3.81318
C         -0.59532       10.83554       -3.93471
C         -0.48009       10.52249       -5.36512
O         -0.03822        9.50326       -5.85238
N         -0.94886       11.70191       -5.99313
C         -0.75307       11.85352       -7.42440
C         -1.82642       12.58540       -8.20925
C         -1.28611       12.66559       -5.03607
C         -1.75815       13.98322       -5.31668
C         -1.39085       15.04163       -4.58287
C         -1.76194       16.37720       -4.96115
N         -0.79692       17.15175       -5.50980
N         -1.02658       18.46016       -5.95538
C         -2.23227       19.05734       -5.85643
C         -3.30549       18.31544       -5.31398
C         -3.06152       16.91188       -4.85009
N         -4.17282       16.31767       -4.37302
S         -5.38678       17.44424       -4.44754
N         -4.58016       18.71965       -5.13972
C         -2.34487       20.45260       -6.21079
C         -2.25120       21.42057       -5.29188
C         -2.47929       22.86426       -5.43725
C         -2.17725       23.61850       -6.52257
C         -2.37203       25.02883       -6.54422
N         -2.53587       26.17421       -6.56537
C         -1.59849       23.06940       -7.70451
N         -1.14273       22.61149       -8.67583
C         -2.96684       23.33042       -4.10490
C         -2.75088       22.30688       -3.16873
C         -2.17415       21.12999       -3.81930
O         -1.77933       20.13149       -3.25589
C         -3.15728       22.36085       -1.84639
C         -3.84002       23.50086       -1.42457
C         -4.06451       24.56989       -2.33977
C         -3.62499       24.47331       -3.67958
C         -4.75089       25.70586       -1.88989
C         -5.22380       25.78347       -0.57824
C         -5.02299       24.72523        0.30383
C         -4.33151       23.59004       -0.11518
H          5.50802        1.08398        0.84091
H          3.29076        3.03517       -3.20977
H          5.40934        2.82978       -4.44379
H          7.69211        1.93168       -4.60527
H          8.68558        0.67907       -2.71058
H          7.45431        0.44495       -0.59101
H          1.99942        4.31359        2.52130
H         -1.85246        7.43397        1.56369
H         -1.28457        7.06225       -0.95663
H          3.44990        5.48712       -0.09635
H          4.55608        5.53262       -2.44162
H          1.48035        8.81509       -3.77574
H         -0.48966        8.69420       -1.47643
H         -1.69243       10.55196       -0.07638
H         -0.99598       12.15163        0.12484
H          0.54448        9.51922        0.19376
H          0.33808       10.70443        1.45707
H          1.33915       11.08657        0.03777
H         -0.66749       10.84744       -7.85436
H          0.22160       12.33145       -7.57849
H         -2.83123       12.27667       -7.90689
H         -1.71083       12.37814       -9.27876
H         -1.73371       13.66878       -8.09812
H         -2.43132       14.11588       -6.15505
H         -0.70789       14.98075       -3.74175
H         -2.53569       20.62503       -7.26268
H         -2.98374       21.51467       -1.18662
H         -3.85565       25.28502       -4.36227
H         -4.92980       26.54427       -2.56022
H         -5.75609       26.67142       -0.24664
H         -5.40550       24.78245        1.31981
H         -4.19017       22.77078        0.58748
