91

C          0.11690       13.76118       -0.63761
C         -0.87976       13.94683        0.25746
C         -1.35949       15.24294        0.60160
N         -1.74334       16.30235        0.87282
C         -1.56756       12.84267        0.84346
N         -2.09716       11.92035        1.30596
C          0.83051       14.80258       -1.43408
C          1.33018       14.18325       -2.59070
C          2.15350       14.80973       -3.50667
C          2.55800       16.11541       -3.22957
C          2.06613       16.78797       -2.07164
C          1.18022       16.12419       -1.18529
C          2.52395       18.09226       -1.81729
C          3.46481       18.70127       -2.65502
C          3.95349       18.02573       -3.76927
C          3.49286       16.74431       -4.06175
C          1.03056       12.74487       -2.57630
O          1.11828       11.97364       -3.50675
C          0.58755       12.46692       -1.17149
C          0.89931       11.34092       -0.50374
C          1.65956       10.29733       -1.10200
S          3.40074       10.27752       -0.95285
C          3.57882        8.90169       -1.96431
S          4.99978        8.28645       -2.33355
C          2.35888        8.46138       -2.35426
C          1.27731        9.21394       -1.84624
C          0.01381        8.72008       -2.27340
C          0.12692        7.65048       -3.08703
S          1.79533        7.19516       -3.33855
O          2.24344        7.50504       -4.67720
O          2.13374        5.98496       -2.62133
C         -0.93991        6.96074       -3.66702
S         -0.76940        5.29877       -4.04362
C         -2.37049        5.30866       -4.64638
N         -2.95509        6.48507       -4.52557
N         -2.13985        7.43132       -3.94543
C         -2.96267        4.15304       -5.21340
C         -2.34764        2.96109       -5.31521
C         -2.95149        1.76975       -5.92043
C         -2.23093        0.57078       -5.97907
C         -2.81838       -0.56931       -6.55714
N         -2.02472       -1.78417       -6.56638
O         -1.66807       -2.22900       -5.46689
O         -1.72711       -2.26363       -7.66837
C         -4.12239       -0.55600       -7.07195
C         -4.80235        0.67182       -7.03143
C         -4.23784        1.80217       -6.45447
C         -4.81095       -1.72256       -7.65496
C         -6.14461       -1.83703       -7.58187
C         -6.91531       -2.87952       -8.20551
C         -8.20018       -2.74710       -8.57196
C         -9.11098       -3.74028       -9.17116
C         -8.76039       -4.77658       -9.97216
C         -9.72271       -5.61577      -10.60102
N        -10.50544       -6.29902      -11.10776
C         -7.40844       -5.07114      -10.31476
N         -6.30825       -5.31609      -10.59468
C        -10.49809       -3.25321       -8.90403
C        -10.42203       -1.93480       -8.43670
C         -9.02657       -1.51476       -8.30207
O         -8.66977       -0.38934       -8.01987
C        -11.52286       -1.16703       -8.09175
C        -12.78634       -1.74701       -8.20837
C        -12.90509       -3.09003       -8.66597
C        -11.75321       -3.83631       -9.00208
C        -14.18376       -3.65509       -8.77090
C        -15.32129       -2.91930       -8.43258
C        -15.19877       -1.60844       -7.98035
C        -13.93796       -1.02426       -7.86783
H          2.53221       14.25927       -4.36330
H          0.85223       16.64005       -0.28634
H          2.17117       18.64463       -0.94823
H          3.82709       19.70204       -2.43131
H          4.69915       18.49132       -4.40937
H          3.89397       16.22856       -4.93254
H          0.70007       11.23974        0.55875
H         -0.93087        9.15427       -1.96568
H         -3.97063        4.32070       -5.57225
H         -1.33438        2.80940       -4.94945
H         -1.22033        0.50987       -5.57624
H         -5.80610        0.78972       -7.43859
H         -4.84932        2.69877       -6.44083
H         -4.21552       -2.45725       -8.19080
H         -6.71897       -1.08652       -7.04600
H         -6.37582       -3.81308       -8.33511
H        -11.38699       -0.15286       -7.72520
H        -11.88128       -4.86719       -9.31695
H        -14.30880       -4.67763       -9.12247
H        -16.30552       -3.37205       -8.52315
H        -16.08593       -1.03885       -7.71533
H        -13.86370        0.00092       -7.50991
