108

C          3.99398        3.71482       -1.92669
C          4.42869        4.99357       -1.85784
C          5.14921        5.60852       -2.92590
N          5.73577        6.09442       -3.80241
C          4.35850        5.74474       -0.64823
N          4.37233        6.36301        0.33393
C          4.36681        2.74802       -2.98685
C          4.48112        1.47538       -2.40720
C          4.79307        0.33760       -3.13574
C          4.91440        0.46576       -4.52876
C          4.73684        1.74353       -5.13692
C          4.50239        2.88558       -4.35530
C          4.74249        1.85120       -6.53167
C          4.92230        0.72447       -7.33068
C          5.14074       -0.51846       -6.74315
C          5.14531       -0.64824       -5.35157
C          4.02731        1.53034       -1.00172
O          4.03115        0.61456       -0.20679
C          3.43510        2.91499       -0.84097
C          2.34422        2.96478       -0.06202
C          1.23659        3.87560       -0.12762
O          1.22657        5.10301       -0.77385
C         -0.01894        5.69907       -0.65588
C         -0.81530        4.83245        0.06743
C         -0.05527        3.67043        0.38333
C         -0.54805        2.48143        1.07888
O          0.13829        1.50328        1.34306
O         -1.87189        2.58590        1.39963
C         -2.43864        1.45245        2.06504
C         -0.39919        6.93541       -1.23839
N         -0.39310        8.19716       -0.62437
C          0.08733        8.47299        0.71968
C         -0.55651        9.68325        1.39427
C         -0.78501        9.20145       -1.54064
O         -0.81939       10.41086       -1.45267
C         -1.16537        8.42933       -2.72446
C         -0.90152        7.04287       -2.46985
C         -1.28888        6.29358       -3.67639
O         -1.22437        5.09297       -3.84145
N         -1.73671        7.31264       -4.54958
C         -2.06201        7.04650       -5.93726
C         -3.31323        6.19782       -6.08470
C         -1.66030        8.57072       -3.95106
C         -2.03666        9.80743       -4.57343
C         -3.28597       10.09244       -4.97453
C         -3.57293       11.31888       -5.64479
O         -2.59264       12.24603       -5.89360
C         -3.07223       13.28766       -6.63253
C         -4.43304       13.08952       -6.76889
C         -4.76199       11.83587       -6.15984
C         -6.08602       11.23881       -6.10778
O         -7.11344       11.90275       -6.16579
O         -6.04767        9.87952       -6.03895
C         -7.29991        9.19284       -6.02742
C         -2.26182       14.37115       -7.06985
C         -0.95851       14.24296       -7.37186
C          0.05305       15.30598       -7.58848
C         -0.14171       16.50856       -8.18006
C          0.91687       17.42408       -8.42973
N          1.78271       18.17502       -8.63144
C         -1.41847       16.92713       -8.65255
N         -2.46693       17.26444       -9.02400
C          1.36649       14.71404       -7.18493
C          1.19501       13.33082       -7.04283
C         -0.18972       12.95026       -7.33292
O         -0.55577       11.82243       -7.58904
C          2.19244       12.46298       -6.63074
C          3.44395       13.00026       -6.32714
C          3.66739       14.39858       -6.47639
C          2.61763       15.24817       -6.90160
C          4.94117       14.90861       -6.17947
C          5.96330       14.06958       -5.72732
C          5.72929       12.70781       -5.56063
C          4.47732       12.17463       -5.86230
H          4.85246       -0.62949       -2.64303
H          4.36229        3.84663       -4.84044
H          4.57053        2.81291       -7.01128
H          4.88322        0.82007       -8.41276
H          5.28962       -1.39270       -7.37207
H          5.30242       -1.63463       -4.91948
H          2.19751        2.10483        0.59116
H         -1.85874        4.99633        0.30790
H         -2.41146        1.62255        3.14490
H         -1.93618        0.51142        1.81949
H         -3.48260        1.36603        1.75102
H          1.17130        8.60775        0.66139
H         -0.11641        7.59974        1.35032
H         -0.50134       10.59094        0.78971
H         -0.04607        9.91128        2.33427
H         -1.61295        9.49299        1.61128
H         -1.21095        6.51271       -6.37573
H         -2.17723        7.98076       -6.49501
H         -3.14269        5.18234       -5.71316
H         -3.59855        6.12282       -7.13838
H         -4.15129        6.62432       -5.52488
H         -1.23885       10.54088       -4.68816
H         -4.07957        9.37098       -4.81835
H         -5.11927       13.74899       -7.28548
H         -7.20391        8.34573       -5.34217
H         -7.49799        8.80528       -7.03044
H         -8.13398        9.81433       -5.69083
H         -2.75006       15.33883       -7.05530
H          1.98021       11.40276       -6.52538
H          2.81350       16.31393       -6.96862
H          5.15287       15.96983       -6.29587
H          6.94366       14.48146       -5.50033
H          6.52143       12.05795       -5.19645
H          4.31444       11.10742       -5.72331
