92

C         -3.63222        5.89395        1.55639
C         -4.36570        5.40748        0.52990
C         -5.38052        6.17304       -0.10901
N         -6.19393        6.80939       -0.63764
C         -4.25796        4.04476        0.12060
N         -4.18382        2.92786       -0.18686
C         -3.90359        7.13325        2.31754
C         -3.55239        6.89415        3.65777
C         -3.71874        7.83361        4.65837
C         -4.16791        9.10800        4.28809
C         -4.43791        9.40052        2.91711
C         -4.32991        8.39410        1.93813
C         -4.78381       10.71034        2.55665
C         -4.88185       11.71354        3.52184
C         -4.65943       11.41687        4.86356
C         -4.30770       10.12180        5.24574
C         -2.83693        5.60231        3.77120
O         -2.40804        5.08334        4.77847
C         -2.65916        5.14917        2.35283
C         -1.55507        4.47538        1.99688
C         -1.03746        4.35642        0.65019
C         -0.87713        3.17133        0.03480
C         -0.34493        3.12900       -1.33413
C         -0.20459        1.96861       -2.02772
C          0.31577        1.93765       -3.35459
N          0.74242        1.93998       -4.43716
C         -0.56153        0.70741       -1.46836
N         -0.83553       -0.31612       -0.99924
C          0.04606        4.41665       -1.91845
C         -0.14212        5.55651       -1.22773
O         -0.69430        5.57137        0.05336
C          0.23543        6.83435       -1.75095
S          0.19696        7.16471       -3.44423
C          0.80133        8.76064       -3.26514
C          0.95769        9.06723       -1.92353
C          0.64517        7.96817       -1.06835
C          1.39016       10.34864       -1.44463
N          1.76672       11.39648       -1.11470
C          1.03185        9.52192       -4.44853
C          1.99404       10.45673       -4.49015
C          2.20623       11.23654       -5.65365
O          1.47325       11.06763       -6.79690
C          1.88076       11.94954       -7.76417
C          2.90099       12.70946       -7.21373
C          3.10977       12.26061       -5.89007
C          4.06758       12.76407       -4.95976
N          4.85597       13.17364       -4.21531
C          3.59831       13.75447       -7.87985
N          4.16222       14.60319       -8.43672
C          1.29783       11.99304       -9.06014
C          0.29190       11.16448       -9.37821
C         -0.33096       11.15704      -10.68575
C         -1.32312       10.34926      -11.09570
C         -1.94695       10.22150      -12.43665
C         -2.02920       11.17170      -13.40229
C         -2.73650       10.97788      -14.62322
N         -3.30682       10.82393      -15.62214
C         -1.46521       12.47260      -13.25621
N         -1.00033       13.52925      -13.13733
C         -2.63118        8.89188      -12.45607
C         -2.63930        8.37545      -11.15540
C         -1.90605        9.25343      -10.24264
O         -1.81672        9.07487       -9.04572
C         -3.22020        7.16696      -10.80278
C         -3.81822        6.40800      -11.80975
C         -3.80114        6.88279      -13.15057
C         -3.19831        8.12170      -13.46258
C         -4.39077        6.09847      -14.15213
C         -4.98995        4.87590      -13.84332
C         -5.00783        4.41759      -12.52912
C         -4.42387        5.17805      -11.51668
H         -3.44406        7.59715        5.68251
H         -4.53273        8.63107        0.89721
H         -4.96293       10.96987        1.51486
H         -5.13126       12.72926        3.22438
H         -4.74630       12.19886        5.61398
H         -4.12604        9.91778        6.29918
H         -0.89390        4.09240        2.77516
H         -1.16994        2.25643        0.54333
H          0.50300        4.43765       -2.90359
H          0.73597        8.01136        0.01113
H          0.41959        9.30794       -5.32641
H          2.64250       10.65023       -3.64360
H          1.68519       12.70636       -9.78094
H         -0.07607       10.46284       -8.63250
H          0.11198       11.87686      -11.36813
H         -3.18877        6.82839       -9.77047
H         -3.18362        8.43418      -14.50143
H         -4.39286        6.43399      -15.18755
H         -5.44458        4.28129      -14.63183
H         -5.47607        3.46571      -12.29116
H         -4.44592        4.80001      -10.49632
