110

C          4.39604        3.30926       -1.47786
C          5.32264        3.31864       -0.49303
C          6.57106        2.65032       -0.62161
N          7.58986        2.10987       -0.73614
C          5.08389        3.94945        0.76527
N          4.88286        4.47916        1.77753
C          4.45384        2.59502       -2.78512
C          3.14014        2.45303       -3.25920
C          2.80892        1.95083       -4.50305
C          3.85439        1.55401       -5.33342
C          5.20238        1.64644       -4.87422
C          5.49375        2.17447       -3.59639
C          6.23067        1.22596       -5.72678
C          5.94525        0.74671       -7.00709
C          4.62924        0.68421       -7.45784
C          3.58689        1.08373       -6.62463
C          2.19486        3.03725       -2.30880
O          1.00245        2.82708       -2.26862
C          3.04098        3.88432       -1.41254
C          2.68382        5.08345       -0.92856
C          1.43358        5.70694       -1.19038
S          0.75775        6.72482        0.00982
C         -0.61483        7.08719       -0.94943
C         -0.55713        6.46084       -2.17709
C          0.63954        5.70640       -2.32382
C         -1.54527        6.56017       -3.21327
N         -2.29344        6.58410       -4.10039
C         -1.55746        8.00202       -0.43702
C         -2.59290        7.59481        0.31269
C         -3.57364        8.54365        0.73948
N         -3.92257        8.80634        2.06223
C         -3.40521        8.16029        3.25235
C         -4.22273        6.95241        3.68930
C         -4.83720        9.87634        2.14194
O         -5.32456       10.40355        3.12107
C         -5.05717       10.22995        0.72419
C         -4.25030        9.36000       -0.07183
C         -4.44989        9.70532       -1.48849
O         -3.93787        9.17113       -2.44922
N         -5.36353       10.77569       -1.42032
C         -5.93967       11.37483       -2.61278
C         -4.89884       12.01608       -3.51881
C         -5.72050       11.04708       -0.09585
C         -6.64016       12.07593        0.27793
C         -7.44880       11.97908        1.34271
C         -8.39304       13.01897        1.73307
C         -8.67506       13.19255        3.09161
C         -9.59563       14.16923        3.50658
N         -9.83178       14.30414        4.95660
O         -9.31002       13.45844        5.69960
O        -10.53205       15.23561        5.37221
C        -10.25135       14.96493        2.54781
C         -9.96298       14.76890        1.18723
C         -9.05274       13.79957        0.78380
C        -11.22251       16.02007        2.82482
C        -10.82045       17.29112        2.96111
C        -11.75308       18.35909        3.23349
C        -11.45711       19.65224        3.43188
C        -12.36282       20.76074        3.80349
C        -13.67054       20.89163        3.46928
C        -14.43362       22.04977        3.78303
N        -15.06478       22.99535        4.04112
C        -14.37518       19.91263        2.71287
N        -14.95548       19.11578        2.09626
C        -11.50724       21.80100        4.44472
C        -10.16474       21.47498        4.21323
C        -10.05571       20.19118        3.51241
O         -9.01886       19.70648        3.11023
C         -9.09752       22.24041        4.65479
C         -9.37775       23.39321        5.39217
C        -10.72965       23.73744        5.67421
C        -11.78663       22.93083        5.20069
C        -10.99095       24.88641        6.43342
C         -9.94712       25.68590        6.90219
C         -8.62630       25.34805        6.62133
C         -8.34172       24.20683        5.87182
H          1.77037        1.91797       -4.82132
H          6.53133        2.28008       -3.29429
H          7.26896        1.26940       -5.40405
H          6.75538        0.42565       -7.65672
H          4.41243        0.32202       -8.45956
H          2.56498        1.03031       -6.99620
H          3.39547        5.68538       -0.36895
H          0.88084        5.16910       -3.23409
H         -1.41303        9.04998       -0.69178
H         -2.74565        6.55233        0.57596
H         -3.42780        8.89066        4.07055
H         -2.35808        7.88503        3.09548
H         -5.23509        7.24586        3.98805
H         -3.74763        6.47473        4.55347
H         -4.30938        6.20719        2.89291
H         -6.68133       12.13133       -2.34263
H         -6.46790       10.58761       -3.16284
H         -4.24177       12.68666       -2.95642
H         -5.38961       12.59446       -4.30840
H         -4.27532       11.25908       -4.00441
H         -6.65329       12.96462       -0.34546
H         -7.41944       11.10983        1.99617
H         -8.16068       12.56616        3.82166
H        -10.44827       15.37561        0.42367
H         -8.87337       13.66160       -0.27981
H        -12.26263       15.71746        2.90062
H         -9.76127       17.52603        2.88168
H        -12.78119       18.01699        3.31994
H         -8.07904       21.92636        4.44358
H        -12.80316       23.20842        5.45998
H        -12.01439       25.17308        6.66752
H        -10.16750       26.57469        7.48811
H         -7.81541       25.97246        6.98785
H         -7.30198       23.95799        5.66797
