100

C         -0.70700       -0.14044       -0.45111
C         -1.86339       -0.31462       -1.12773
C         -2.84580       -1.25202       -0.70425
N         -3.64327       -2.02475       -0.37099
C         -2.08651        0.31276       -2.39242
N         -2.26181        0.80982       -3.42488
C         -0.20811       -0.90407        0.71006
C          1.17066       -1.11254        0.52171
C          1.98106       -1.71956        1.46107
C          1.41410       -2.00868        2.70648
C          0.04056       -1.70175        2.95931
C         -0.78295       -1.19432        1.93305
C         -0.45307       -1.85160        4.26254
C          0.37140       -2.31366        5.29080
C          1.69194       -2.66579        5.02632
C          2.21001       -2.51890        3.74027
C          1.63991       -0.30633       -0.62879
O          2.75474       -0.26638       -1.09999
C          0.45802        0.56513       -0.95363
C          0.69442        1.84913       -1.24035
C         -0.20888        2.94298       -1.06642
S         -0.01368        4.26101       -2.13046
C         -0.96705        5.31813       -1.17277
C         -0.95845        6.71708       -1.54874
O         -1.85547        7.52291       -1.33614
O          0.19312        7.08671       -2.18540
C         -1.62654        4.63831       -0.15207
C         -1.19127        3.24566       -0.12643
C         -2.47454        5.23114        0.87264
C         -2.12135        5.63678        2.12624
N         -0.79405        5.60671        2.69179
O         -0.72195        5.51034        3.92473
O          0.17587        5.72096        1.93347
C         -3.23512        6.13391        2.90278
C         -4.32183        6.12418        2.12870
C         -3.94161        5.61985        0.79972
C         -4.84209        5.55313       -0.20673
C         -4.74654        4.69216       -1.37927
C         -5.84547        4.89705       -2.12558
C         -6.64315        5.94250       -1.51944
N         -7.82310        6.49441       -2.16249
O         -8.15451        7.66249       -1.94161
O         -8.41595        5.74870       -2.95771
C         -6.12837        6.33404       -0.33424
C         -6.64792        7.37013        0.53548
C         -6.65720        8.68780        0.26372
C         -7.28202        9.64918        1.11767
S         -8.53347        9.20027        2.21209
C         -8.80660       10.81122        2.75729
C         -7.94302       11.68340        2.13098
C         -7.08192       11.01391        1.19644
N         -6.14295       11.67896        0.47353
C         -6.14122       13.00864        0.75037
N         -6.91559       13.72948        1.61384
C         -7.86961       13.06696        2.32931
C         -8.69808       13.80204        3.22851
N         -9.39560       14.34997        3.97938
C         -9.82764       10.94724        3.72834
C        -11.10867       11.17652        3.39872
C        -12.30653       11.19019        4.26420
C        -12.48895       10.45489        5.39207
C        -13.71872       10.42653        6.08849
N        -14.73136       10.39557        6.67691
C        -11.48680        9.58564        5.92202
N        -10.67051        8.88117        6.34049
C        -13.35257       11.94973        3.52573
C        -12.91671       12.14400        2.20856
C        -11.54991       11.63785        2.03634
O        -10.91117       11.68227        1.00619
C        -13.65337       12.81259        1.24327
C        -14.88888       13.34995        1.61481
C        -15.34905       13.19709        2.95322
C        -14.57361       12.49270        3.89973
C        -16.57556       13.77103        3.31695
C        -17.33633       14.48262        2.38763
C        -16.88592       14.62587        1.07851
C        -15.67001       14.06147        0.69257
H          3.04331       -1.84547        1.27027
H         -1.81920       -0.93952        2.13768
H         -1.47762       -1.57459        4.50255
H         -0.01700       -2.39275        6.30335
H          2.32792       -3.03444        5.82757
H          3.25277       -2.77609        3.56307
H          1.72068        2.11498       -1.50947
H          0.82244        6.34322       -2.26692
H         -1.50329        2.54907        0.64330
H         -3.20612        6.39685        3.95081
H         -5.31291        6.32940        2.49775
H         -4.00794        3.92825       -1.55817
H         -6.13755        4.36160       -3.01665
H         -7.07509        6.99682        1.46306
H         -6.23584        9.06605       -0.66681
H         -5.40282       13.59194        0.20347
H         -9.52400       10.74630        4.75163
H        -13.25288       12.93575        0.24033
H        -14.94412       12.41868        4.91722
H        -16.95003       13.67580        4.33443
H        -18.28106       14.92830        2.68895
H        -17.47917       15.18259        0.35727
H        -15.33375       14.19154       -0.33443
