115

C          4.71991        5.19549       -9.34489
C          3.52060        5.54980       -9.86642
C          3.30732        5.67947      -11.27626
N          3.13347        5.78270      -12.41906
C          2.31769        5.65838       -9.12171
N          1.26537        5.74166       -8.64127
C          5.83389        4.72713      -10.20995
C          6.48269        3.66675       -9.56590
C          7.52590        2.96558      -10.15120
C          7.97614        3.38275      -11.41823
C          7.37421        4.51242      -12.04425
C          6.30217        5.17615      -11.43311
C          7.86239        4.97132      -13.27377
C          8.92316        4.32399      -13.90171
C          9.49982        3.20316      -13.31136
C          9.03251        2.73528      -12.07896
C          5.97061        3.54945       -8.18180
O          6.26450        2.70405       -7.36426
C          5.07235        4.75936       -7.98698
C          5.12675        5.31309       -6.75939
C          4.84380        6.67105       -6.32316
C          5.75221        7.60975       -5.93258
N          7.15461        7.37422       -5.64407
O          7.60519        6.22784       -5.74325
O          7.81297        8.35297       -5.26276
C          5.14462        8.91260       -5.75647
C          3.82192        8.78940       -5.92471
C          3.53635        7.35969       -6.08367
C          2.34954        6.77865       -5.79914
C          2.10656        5.33306       -5.75990
C          0.80680        5.13634       -5.49073
C          0.18319        6.42412       -5.30647
N         -1.22191        6.59750       -5.01496
O         -1.77939        5.67485       -4.40484
O         -1.78765        7.62943       -5.40638
C          1.07102        7.43652       -5.41335
C          0.79827        8.82764       -5.15313
C          0.36945        9.28766       -3.96603
C          0.01967       10.64167       -3.78321
S          0.28188       11.48371       -2.28746
C         -0.33459       12.98643       -2.90055
C         -0.73966       12.77141       -4.16561
C         -0.59033       11.49305       -4.64115
N         -1.08203       11.24805       -5.89279
C         -1.51878       12.51304       -6.27493
C         -2.05212       12.77685       -7.57011
N         -2.44691       12.98176       -8.63453
C         -1.35834       13.45240       -5.23686
C         -0.48690       14.11814       -2.08518
C          0.49873       14.99933       -1.90554
C          0.37851       16.13264       -1.05021
S          1.22927       17.56228       -1.51057
C          0.89058       18.36102       -0.02941
C          0.35517       17.44529        0.86223
C         -0.28898       16.35168        0.15310
C         -1.33755       15.50552        0.86196
N         -2.61826       15.27781        0.06551
O         -3.08697       14.12958        0.09398
O         -3.12221       16.23711       -0.53449
C         -1.82945       16.18600        2.15340
C         -0.66253       16.58645        3.04898
C          0.29434       17.58361        2.37261
N          1.67231       17.35378        2.99213
O          2.37704       16.44608        2.52689
O          1.97257       18.07063        3.95690
C          1.26588       19.73157        0.10839
C          0.43295       20.68907        0.55908
C          0.59842       22.16640        0.50896
C          1.75139       22.86088        0.68341
C          1.78905       24.28447        0.71113
N          1.81944       25.44418        0.73126
C          3.01190       22.22109        0.90883
N          4.01370       21.66756        1.08431
C         -0.78286       22.73506        0.38720
C         -1.69399       21.70366        0.63745
C         -1.00709       20.45381        0.91683
O         -1.55825       19.47948        1.38191
C         -3.06767       21.81464        0.53639
C         -3.58464       23.03963        0.14406
C         -2.70881       24.13945       -0.08235
C         -1.30278       23.97404        0.03772
C         -3.27874       25.36818       -0.44551
C         -4.66188       25.49613       -0.61493
C         -5.49977       24.39894       -0.43343
C         -4.96356       23.17524       -0.04862
H          8.00297        2.14670       -9.61924
H          5.86711        6.04458      -11.91953
H          7.42237        5.84339      -13.75443
H          9.29583        4.69616      -14.85286
H         10.32189        2.69560      -13.81017
H          9.50895        1.86194      -11.63821
H          5.62394        4.72769       -5.97797
H          5.68501        9.83023       -5.57051
H          3.13306        9.61432       -5.87882
H          2.81328        4.54173       -5.93765
H          0.29446        4.18984       -5.41888
H          0.94104        9.49319       -5.99915
H          0.27409        8.62299       -3.10888
H         -1.13285       10.36100       -6.38056
H         -1.65095       14.49458       -5.27115
H         -1.47377       14.23920       -1.68843
H          1.44681       14.85291       -2.42393
H         -0.91707       14.51620        1.08049
H         -2.50142       15.51124        2.69822
H         -2.42456       17.07923        1.91751
H         -0.14066       15.67155        3.35628
H         -1.05665       17.03759        3.96796
H          0.04467       18.60142        2.67719
H          2.22129       20.00281       -0.33438
H         -3.69902       20.94916        0.71895
H         -0.66163       24.82027       -0.19012
H         -2.65136       26.24271       -0.60518
H         -5.08747       26.45537       -0.89807
H         -6.57145       24.49354       -0.58885
H         -5.62946       22.32447        0.08628
