118

C          4.01090        0.19213       -3.07691
C          3.84426       -0.27120       -1.81165
C          4.35036       -1.54731       -1.39575
N          4.78094       -2.56845       -1.07098
C          3.06852        0.44058       -0.84462
N          2.47098        1.03501       -0.05335
C          4.62675       -0.57597       -4.20015
C          3.97341       -0.19209       -5.37471
C          4.27397       -0.67991       -6.63100
C          5.40768       -1.47151       -6.75649
C          6.17428       -1.81238       -5.60350
C          5.73277       -1.41234       -4.31129
C          7.39781       -2.47446       -5.80940
C          7.85374       -2.76266       -7.10315
C          7.07075       -2.45576       -8.21219
C          5.83994       -1.83379       -8.03670
C          3.13141        0.98420       -5.13927
O          2.51398        1.57490       -5.99875
C          3.33551        1.36183       -3.69455
C          3.06038        2.60323       -3.23472
C          2.30959        3.62641       -3.96979
C          1.02792        3.46950       -4.40876
N          0.17433        2.35351       -4.07689
O         -0.66520        2.01215       -4.92103
O          0.27473        1.86392       -2.94272
C          0.50821        4.62955       -5.07331
C          1.41448        5.60345       -4.96407
C          2.58358        5.09077       -4.23925
C          3.63770        5.88874       -3.94691
C          4.97694        5.44557       -3.56532
C          5.73237        6.54058       -3.36396
C          4.91982        7.72410       -3.57347
N          5.40427        9.07602       -3.31166
O          4.65268       10.04351       -3.47910
O          6.57590        9.17243       -2.91837
C          3.66595        7.39753       -3.96479
C          2.59793        8.35789       -4.18818
C          1.45921        8.38280       -3.48244
C          0.50291        9.45941       -3.53317
C          0.07924       10.13687       -2.46838
O          0.47676        9.78907       -1.18784
C          0.54444       10.86603       -0.25866
C         -0.84695       11.40631       -0.02303
S         -1.29733       12.35853       -1.49706
C         -0.80599       11.27094       -2.75963
C         -1.07922       11.39853       -4.08441
S         -0.12598       10.16666       -5.04290
N         -1.42395        9.12542       -5.16701
C         -1.29568        7.88837       -5.91406
C         -1.83868       12.42295       -4.74816
S         -1.34815       12.99155       -6.32095
C         -2.43581       14.31165       -6.31140
C         -3.09871       14.35845       -5.09567
C         -3.02760       13.07657       -4.41750
C         -4.06147       12.68200       -3.38034
N         -4.79396       11.40535       -3.79506
O         -5.83926       11.51480       -4.45121
O         -4.30308       10.33136       -3.41314
C         -5.08981       13.80012       -3.10138
C         -4.44098       15.18744       -3.12559
C         -3.91826       15.50347       -4.54200
N         -3.11338       16.79591       -4.41908
O         -3.73906       17.85127       -4.58844
O         -1.91133       16.71909       -4.12942
C         -2.47561       15.21301       -7.42274
C         -3.42577       15.16139       -8.37738
C         -3.73390       16.09784       -9.49804
C         -2.86374       16.90952      -10.15275
C         -3.25575       17.74307      -11.24674
N         -3.57383       18.42358      -12.12942
C         -1.47925       16.97165       -9.82448
N         -0.35126       17.02645       -9.55188
C         -5.18044       15.87624       -9.84572
C         -5.62442       14.74656       -9.14921
C         -4.55044       14.16772       -8.34068
O         -4.61486       13.09791       -7.77440
C         -6.92895       14.28108       -9.16641
C         -7.86513       14.97234       -9.93256
C         -7.45603       16.10068      -10.69509
C         -6.10832       16.54712      -10.63849
C         -8.42143       16.75473      -11.48064
C         -9.75349       16.32726      -11.49078
C        -10.14734       15.24171      -10.71538
C         -9.20659       14.56414       -9.94380
H          3.71151       -0.33888       -7.49536
H          6.32577       -1.68457       -3.44079
H          8.04091       -2.72486       -4.96811
H          8.83175       -3.21556       -7.24926
H          7.42576       -2.67375       -9.21658
H          5.24602       -1.58337       -8.91415
H          3.32356        2.89199       -2.22012
H         -0.43470        4.67649       -5.59513
H          1.31379        6.57337       -5.41729
H          5.34497        4.43247       -3.57268
H          6.78864        6.57581       -3.13836
H          2.81318        9.16321       -4.89102
H          1.25722        7.62701       -2.72574
H          1.25591       11.63050       -0.59854
H          0.94233       10.45494        0.67435
H         -0.87389       12.06808        0.84659
H         -1.56682       10.59314        0.13340
H         -2.03780        8.97681       -4.36458
H         -0.87555        7.11899       -5.26779
H         -0.65846        7.99998       -6.79870
H         -2.27585        7.53969       -6.24792
H         -3.62170       12.42512       -2.42329
H         -5.55911       13.62372       -2.12544
H         -5.89983       13.80680       -3.83940
H         -3.63133       15.22432       -2.38242
H         -5.17631       15.94203       -2.82058
H         -4.75102       15.72420       -5.21978
H         -1.71357       15.98537       -7.40952
H         -7.20183       13.41162       -8.57394
H         -5.84630       17.43239      -11.20985
H         -8.14669       17.60943      -12.09633
H        -10.48778       16.84719      -12.10306
H        -11.18551       14.91740      -10.71250
H         -9.53146       13.71432       -9.34494
