113

C         -0.82813        6.07058       -5.48751
C         -1.90386        5.42881       -4.97713
C         -3.21517        5.61400       -5.49889
N         -4.28139        5.79142       -5.92202
C         -1.76572        4.45506       -3.93866
N         -1.64400        3.63637       -3.12911
C         -0.76679        6.83828       -6.74839
C          0.53445        6.70310       -7.26260
C          0.92385        7.25180       -8.46870
C         -0.01593        8.01486       -9.17354
C         -1.31505        8.23695       -8.62630
C         -1.68403        7.63951       -7.40742
C         -2.21561        9.05860       -9.31862
C         -1.86233        9.62892      -10.54199
C         -0.60582        9.38525      -11.08983
C          0.31406        8.58821      -10.40780
C          1.41279        6.03993       -6.27132
O          2.58523        5.76037       -6.39587
C          0.56220        5.93079       -5.04321
C          1.15238        6.16945       -3.85926
C          0.47010        6.70734       -2.72353
S         -0.73068        7.93683       -2.89187
C         -1.08366        7.97124       -1.21891
C         -0.15149        7.22392       -0.52064
C          0.73333        6.50399       -1.38295
C         -0.07819        7.19628        0.90132
N         -0.05338        7.19484        2.06490
C         -2.16452        8.78208       -0.78565
C         -2.92146        8.47289        0.27997
C         -3.98037        9.32081        0.74227
N         -4.34373        9.46542        2.08555
C         -3.70842        8.86554        3.24679
C         -4.65061        7.98770        4.06444
C         -5.35760       10.43386        2.23565
O         -5.85197       10.87860        3.24854
C         -5.64669       10.82041        0.84564
C         -4.76693       10.09170       -0.01515
C         -5.05601       10.49212       -1.40704
O         -4.50838       10.10648       -2.42059
N         -6.11459       11.40644       -1.25360
C         -6.77903       11.99226       -2.40039
C         -6.11435       13.26243       -2.90689
C         -6.42201       11.60057        0.09470
C         -7.43264       12.48520        0.57926
C         -7.17085       13.45535        1.46971
C         -8.20775       14.32512        1.88624
S         -8.43734       15.76706        0.98728
C         -9.78307       16.24136        1.93054
C        -10.03034       15.33976        2.94877
C         -9.11465       14.23496        2.93185
C         -9.20766       13.15810        3.90869
O         -8.45450       12.19504        3.93842
C        -10.31176       13.25696        4.90219
C        -10.45523       12.22887        5.84808
C        -11.50305       12.25763        6.76913
C        -12.41058       13.31443        6.75733
C        -12.26818       14.34900        5.83044
C        -11.21874       14.32710        4.89884
C        -11.10720       15.44455        3.92233
O        -11.89268       16.38536        3.96429
C        -10.45241       17.44045        1.57573
C        -11.51610       17.45031        0.75788
C        -12.18932       18.60922        0.14253
C        -12.38046       19.82932        0.70226
C        -13.12245       20.85552        0.05567
N        -13.71583       21.69837       -0.48225
C        -11.89044       20.16737        1.99598
N        -11.47198       20.45717        3.03977
C        -12.76297       18.11907       -1.14147
C        -12.73009       16.71807       -1.13179
C        -12.06307       16.22399        0.07955
O        -11.97260       15.05826        0.40350
C        -13.16129       15.93004       -2.18614
C        -13.61605       16.57222       -3.34054
C        -13.63919       17.99510       -3.39537
C        -13.21481       18.75968       -2.28701
C        -14.06746       18.61928       -4.57559
C        -14.45872       17.86398       -5.68250
C        -14.43448       16.47337       -5.62474
C        -14.01911       15.82994       -4.45922
H          1.93962        7.11457       -8.82725
H         -2.66836        7.83499       -6.99029
H         -3.20512        9.26200       -8.91267
H         -2.57212       10.26074      -11.07013
H         -0.33772        9.82087      -12.04894
H          1.29290        8.41849      -10.85149
H          2.23791        6.09898       -3.78178
H          1.52004        5.85691       -1.01703
H         -2.37208        9.67589       -1.37171
H         -2.75669        7.56507        0.85150
H         -3.34859        9.68088        3.88489
H         -2.83964        8.27567        2.94767
H         -5.48804        8.56129        4.47514
H         -4.11146        7.54496        4.90905
H         -5.06562        7.17553        3.45950
H         -7.82966       12.17824       -2.16073
H         -6.76242       11.25193       -3.21074
H         -6.09157       14.03381       -2.13197
H         -6.66785       13.65769       -3.76630
H         -5.08498       13.07506       -3.23077
H         -8.44031       12.31663        0.21048
H         -6.16862       13.62813        1.85559
H         -9.75474       11.39414        5.86423
H        -11.61298       11.45032        7.49013
H        -13.23302       13.33228        7.46950
H        -12.98547       15.16847        5.83225
H         -9.99806       18.35245        1.94541
H        -13.09739       14.84778       -2.11719
H        -13.21307       19.84208       -2.37488
H        -14.09295       19.70504       -4.64895
H        -14.77946       18.36393       -6.59306
H        -14.73494       15.88771       -6.48992
H        -14.00153       14.74190       -4.43775
