104

C         -0.32659        0.73509        3.30494
C         -0.69603        0.66821        4.60729
C         -0.93729       -0.56064        5.27324
N         -1.13778       -1.57888        5.81713
C         -0.78533        1.83457        5.42176
N         -0.86463        2.78926        6.07559
C         -0.07856       -0.42445        2.39774
C          0.74806        0.01876        1.35571
C          1.10501       -0.76047        0.27088
C          0.59120       -2.05541        0.19973
C         -0.22995       -2.55496        1.25203
C         -0.55953       -1.72694        2.35127
C         -0.72147       -3.86656        1.15010
C         -0.44117       -4.65331        0.02918
C          0.33340       -4.14365       -1.00879
C          0.85306       -2.85392       -0.92089
C          1.04850        1.44840        1.49725
O          1.89416        2.06292        0.88405
C          0.09960        1.94027        2.54554
C         -0.42047        3.18082        2.53364
C         -0.09805        4.18565        1.56147
S          1.18253        5.30434        1.82904
C          0.75640        6.31485        0.47045
C         -0.23605        5.66979       -0.25518
C         -0.72775        4.48172        0.36686
O         -1.71022        3.67764       -0.11485
C         -2.37956        4.02426       -1.23794
O         -2.93805        3.21209       -1.96094
C         -2.57798        5.52842       -1.46825
O         -3.64297        6.11114       -1.49039
S         -1.00126        6.20989       -1.73966
C          1.40115        7.58904        0.35698
N          2.44620        7.95292       -0.51718
C          3.04448        7.21089       -1.60218
C          3.95901        6.08412       -1.16525
C          2.86681        9.28117       -0.29663
O          3.70344        9.95139       -0.86629
C          2.02206        9.70274        0.81326
C          1.11218        8.64085        1.14893
C          0.23895        9.18194        2.22905
O         -0.70855        8.62532        2.74608
N          0.73791       10.49731        2.43411
C          0.15143       11.45283        3.36888
C          0.69329       11.34220        4.78774
C          1.79683       10.77010        1.57238
C          2.41574       12.05558        1.43200
C          3.73746       12.29661        1.45013
C          4.27480       13.60513        1.23039
S          5.97048       13.86799        1.46600
C          5.84314       15.57136        1.24329
C          4.56672       15.89735        0.84302
C          3.68998       14.78727        0.80499
O          2.40870       14.83093        0.36949
C          1.83016       16.01229        0.07140
O          0.87900       16.11606       -0.69098
C          2.30233       17.21878        0.88512
O          1.62946       17.86952        1.65814
S          3.95828       17.49138        0.44026
C          6.99317       16.39456        1.41063
C          7.39617       16.88335        2.59762
C          8.51690       17.80905        2.90142
C          9.67090       17.94942        2.19709
C         10.73086       18.80745        2.60337
N         11.59324       19.51226        2.92282
C          9.93752       17.21153        1.00940
N         10.16447       16.62167        0.03632
C          8.22524       18.42148        4.23324
C          7.15645       17.72481        4.80679
C          6.63171       16.70887        3.88231
O          5.73592       15.93304        4.13998
C          6.63043       18.01827        6.05606
C          7.17771       19.08436        6.77639
C          8.24949       19.83401        6.21958
C          8.76339       19.49253        4.94313
C          8.76839       20.91212        6.95964
C          8.24639       21.24380        8.21415
C          7.19733       20.50460        8.75075
C          6.66625       19.43123        8.03627
H          1.72136       -0.34001       -0.51830
H         -1.22972       -2.11851        3.11256
H         -1.33842       -4.28988        1.94071
H         -0.83633       -5.66412       -0.03816
H          0.53330       -4.74874       -1.88967
H          1.45152       -2.47113       -1.74546
H         -1.23438        3.44040        3.20646
H          3.66273        7.90446       -2.19150
H          2.25678        6.86419       -2.27462
H          4.86281        6.47386       -0.68314
H          4.27390        5.50779       -2.04160
H          3.46576        5.40685       -0.46685
H         -0.93138       11.29238        3.38846
H          0.31365       12.47429        3.00702
H          0.45854       10.36920        5.22911
H          0.24178       12.11555        5.42117
H          1.77909       11.47923        4.81919
H          1.69811       12.84543        1.24484
H          4.43295       11.48281        1.65229
H          7.49692       16.65089        0.48555
H          5.79679       17.43867        6.44377
H          9.56403       20.10499        4.53896
H          9.58906       21.51044        6.56705
H          8.65892       22.08081        8.77287
H          6.78860       20.76353        9.72485
H          5.84306       18.86872        8.47285
