115

C         -1.52812        3.08235        3.77670
C         -0.56659        3.76048        4.44059
C          0.25418        3.12502        5.41811
N          0.90844        2.58947        6.21035
C         -0.40369        5.17161        4.27741
N         -0.29560        6.32167        4.14562
C         -1.93057        1.66956        3.94661
C         -3.30886        1.57939        3.67787
C         -3.97895        0.37647        3.57548
C         -3.21277       -0.79336        3.62441
C         -1.79892       -0.72258        3.82179
C         -1.16715        0.51775        4.03038
C         -1.04160       -1.89799        3.72606
C         -1.65542       -3.12021        3.44742
C         -3.03711       -3.19090        3.29201
C         -3.81269       -2.03601        3.38787
C         -3.80583        2.87719        3.15988
O         -4.94371        3.18062        2.87884
C         -2.54336        3.64189        2.88790
C         -2.43727        4.18127        1.66043
C         -1.19562        4.36505        0.88654
C         -1.08609        5.44132       -0.00364
C          0.10217        5.66746       -0.71606
C          1.11294        4.72165       -0.55711
N          1.01563        3.61484        0.22118
C         -0.14158        3.45299        0.90116
C          0.25764        6.81996       -1.60928
N          0.80359        8.06114       -1.23838
C          1.37531        8.45011        0.03939
C          2.88240        8.23139        0.10128
C          0.86197        8.94939       -2.33449
O          1.30389       10.07801       -2.39547
C          0.30361        8.15440       -3.43856
C         -0.05037        6.85699       -2.91664
C         -0.55792        6.05588       -4.05334
O         -0.96705        4.91540       -4.02005
N         -0.39970        6.93390       -5.15344
C         -0.66149        6.53203       -6.52228
C          0.56038        5.91263       -7.18762
C          0.09079        8.17427       -4.75907
C          0.43206        9.21682       -5.69421
C          0.00175       10.48485       -5.61624
C          0.53346       11.59007       -6.39753
C         -0.15941       12.35812       -7.28045
N         -1.52236       12.14143       -7.70564
O         -1.97691       12.92723       -8.55550
O         -2.17688       11.20422       -7.21707
C          0.62407       13.47945       -7.75226
C          1.82481       13.44717       -7.15967
C          1.88379       12.27056       -6.28115
C          2.96621       11.91154       -5.54488
C          3.13008       10.63540       -4.85588
C          4.31841       10.60091       -4.24754
C          4.97313       11.85476       -4.49737
N          6.27136       12.15741       -3.94159
O          7.00501       11.18710       -3.69876
O          6.57515       13.33585       -3.72552
C          4.23275       12.67415       -5.27941
C          4.62612       13.99794       -5.70531
C          3.92532       15.10212       -5.41447
C          4.35551       16.41658       -5.82937
C          4.47542       17.46965       -5.00864
C          4.78490       18.88152       -5.30827
C          5.57373       19.34963       -6.30692
C          5.89620       20.73188       -6.44894
N          6.14831       21.85367       -6.57092
C          6.19240       18.48980       -7.26068
N          6.68702       17.78485       -8.04075
C          4.22848       19.67543       -4.17228
C          3.89523       18.78811       -3.13945
C          4.11864       17.40019       -3.55221
O          4.00133       16.42931       -2.83505
C          3.35666       19.18032       -1.92634
C          3.12152       20.54028       -1.72396
C          3.42679       21.47245       -2.75619
C          3.97102       21.02672       -3.98241
C          3.17625       22.83406       -2.52764
C          2.64270       23.27022       -1.31250
C          2.34330       22.35269       -0.30961
C          2.57827       20.99417       -0.51483
H         -5.03679        0.36060        3.32877
H         -0.08566        0.56580        4.13165
H          0.04169       -1.87007        3.82814
H         -1.05133       -4.01790        3.34070
H         -3.51168       -4.14443        3.07443
H         -4.88797       -2.11209        3.23785
H         -3.34944        4.37524        1.09375
H         -1.93807        6.10093       -0.14536
H          2.06487        4.81288       -1.07262
H         -0.18849        2.51849        1.45567
H          0.87547        7.93476        0.86367
H          1.19145        9.52501        0.17044
H          3.13867        7.18062       -0.06003
H          3.26560        8.53028        1.08300
H          3.40788        8.82522       -0.65549
H         -0.99884        7.39981       -7.09779
H         -1.47891        5.80264       -6.51804
H          1.38601        6.62962       -7.24368
H          0.31728        5.60047       -8.20827
H          0.91840        5.03691       -6.63679
H          1.19088        8.95074       -6.42943
H         -0.78144       10.75107       -4.90620
H          0.28599       14.21652       -8.46667
H          2.60536       14.15649       -7.36622
H          2.48140        9.79258       -4.83190
H          4.71711        9.77487       -3.68009
H          5.58552       14.07961       -6.21430
H          2.99820       15.03818       -4.84495
H          4.53120       16.50276       -6.89840
H          3.11561       18.43462       -1.17330
H          4.16233       21.76006       -4.75945
H          3.40189       23.57422       -3.29311
H          2.46288       24.32975       -1.14808
H          1.92836       22.69375        0.63568
H          2.33582       20.29237        0.28096
