102

C          4.41904        3.00731        0.24437
C          5.11893        3.70661        1.16421
C          6.42048        4.20982        0.88706
N          7.48070        4.60938        0.63613
C          4.65362        3.82059        2.50982
N          4.28495        3.86634        3.60793
C          4.90705        2.50576       -1.05550
C          4.34765        1.22876       -1.24961
C          4.56092        0.48183       -2.39084
C          5.26237        1.09035       -3.43870
C          5.75457        2.42492       -3.29741
C          5.61210        3.11366       -2.07804
C          6.32884        3.05706       -4.40877
C          6.42788        2.39424       -5.63318
C          5.99001        1.07825       -5.75435
C          5.41888        0.42637       -4.66154
C          3.31405        0.96857       -0.21549
O          2.65100       -0.03282       -0.06282
C          3.16648        2.29582        0.47438
C          1.91613        2.78097        0.56985
C          1.55476        4.17176        0.44671
C          0.64490        4.69410       -0.36202
C          0.61969        6.07486       -0.11182
C          1.69853        6.37173        0.83302
O          2.14056        7.46977        1.11106
O          2.24005        5.14458        1.21600
C         -0.40120        6.55558       -0.80800
O         -1.02163        5.56734       -1.62819
C         -0.33265        4.38904       -1.39713
O         -0.48390        3.33148       -1.97453
C         -0.99692        7.86314       -0.80177
N         -1.57780        8.50366       -1.90278
C         -1.69460        7.98154       -3.25299
C         -3.00211        7.22874       -3.46482
C         -2.17535        9.73707       -1.54592
O         -2.77653       10.53835       -2.22531
C         -1.92016        9.81628       -0.09519
C         -1.19999        8.63031        0.27927
C         -0.99937        8.66116        1.72760
O         -0.48814        7.79127        2.40463
N         -1.57251        9.89667        2.10413
C         -1.37575       10.38895        3.45510
C         -0.13192       11.25249        3.59165
C         -2.15023       10.55187        1.00218
C         -2.88762       11.79745        1.02993
C         -3.69802       12.17146        2.03044
C         -4.39040       13.41001        2.09479
S         -4.55261       14.15031        3.63725
C         -5.56665       15.39994        3.04941
C         -6.12147       16.36712        3.97931
O         -6.50565       17.49491        3.69639
O         -6.21051       15.88353        5.24876
C         -5.71571       15.30588        1.67721
C         -5.02974       14.16645        1.13133
C         -6.50742       16.19255        0.87534
C         -7.78542       15.98492        0.50510
C         -8.60848       16.66070       -0.51807
C         -8.62756       17.98316       -0.81473
C         -9.54623       18.55071       -1.74658
N        -10.28953       19.00496       -2.51213
C         -7.77030       18.91922       -0.16771
N         -7.06051       19.68637        0.33681
C         -9.56571       15.62761       -1.02063
C         -9.53565       14.54099       -0.13659
C         -8.54686       14.76447        0.92770
O         -8.42427       14.10273        1.93611
C        -10.30274       13.39932       -0.29156
C        -11.16894       13.33297       -1.38550
C        -11.22496       14.41325       -2.31149
C        -10.39653       15.54671       -2.13334
C        -12.12657       14.33247       -3.38502
C        -12.96119       13.22249       -3.53923
C        -12.88896       12.16299       -2.63988
C        -11.99095       12.21331       -1.57452
H          4.10297       -0.49741       -2.49721
H          5.97450        4.13383       -1.98142
H          6.67542        4.08674       -4.34365
H          6.84286        2.90902       -6.49629
H          6.07477        0.56259       -6.70769
H          5.06716       -0.59607       -4.78545
H          1.08610        2.07808        0.45504
H         -0.83160        7.34966       -3.48494
H         -1.66692        8.82721       -3.94993
H         -3.11387        6.39906       -2.76084
H         -3.04660        6.82112       -4.47932
H         -3.86305        7.89026       -3.32411
H         -1.26887        9.52462        4.12083
H         -2.24445       10.93196        3.81830
H          0.77129       10.68076        3.35578
H         -0.04209       11.61840        4.62005
H         -0.16951       12.11893        2.92414
H         -2.79195       12.42585        0.14342
H         -3.85957       11.50721        2.87337
H         -5.93202       14.94580        5.28850
H         -5.06584       13.88033        0.08637
H         -5.95482       17.03805        0.46887
H        -10.22159       12.58838        0.42708
H        -10.43071       16.33372       -2.88047
H        -12.20607       15.14606       -4.10398
H        -13.67358       13.18783       -4.36018
H        -13.53822       11.29932       -2.76120
H        -11.95009       11.37416       -0.88290
