100

C          2.14620        2.12989       -2.73288
C          1.80437        3.05122       -3.65525
C          1.45430        2.68180       -4.98731
N          1.17369        2.36417       -6.06532
C          1.85837        4.44952       -3.37034
N          1.90771        5.58003       -3.11393
C          2.30369        0.67401       -2.91115
C          3.32781        0.24506       -2.04920
C          3.68349       -1.08361       -1.91117
C          2.88794       -2.03667       -2.55924
C          1.76499       -1.62373       -3.33975
C          1.50536       -0.25712       -3.55009
C          0.89112       -2.59781       -3.84195
C          1.12648       -3.95386       -3.60986
C          2.25491       -4.35640       -2.90070
C          3.13277       -3.40487       -2.38093
C          3.69993        1.34997       -1.12817
O          4.55305        1.34025       -0.26841
C          2.65360        2.39467       -1.39000
C          2.09220        2.99923       -0.33519
C          0.75593        3.50721       -0.32887
S          0.31510        4.77306        0.77528
C         -1.38770        4.76881        0.36194
C         -1.52491        3.85336       -0.64703
C         -0.38409        3.17570       -1.00859
O         -0.66598        2.28358       -1.97333
C         -2.01953        2.46744       -2.21416
S         -2.84598        1.63540       -3.36290
O         -2.57136        3.41880       -1.37274
C         -2.33954        5.62212        0.98254
N         -2.38500        6.01699        2.33196
C         -1.49135        5.67660        3.41957
C         -1.83979        4.36108        4.09135
C         -3.49210        6.85329        2.58676
O         -3.86211        7.36472        3.62366
C         -4.11245        6.98223        1.26692
C         -3.36049        6.19575        0.32542
C         -4.00806        6.38183       -0.99669
O         -3.68369        5.88981       -2.05787
N         -5.04776        7.29589       -0.71893
C         -5.89970        7.84984       -1.75663
C         -7.13270        7.00542       -2.02774
C         -5.10271        7.60885        0.63539
C         -6.05243        8.52253        1.19516
C         -6.88560        8.20416        2.19822
C         -7.81088        9.14621        2.72438
S         -8.91513        8.67929        4.00069
C         -9.67710       10.25406        4.09838
C         -9.01291       11.06609        3.22512
C         -8.05788       10.45927        2.44780
O         -7.54846       11.33885        1.56689
C         -8.23995       12.51031        1.83796
S         -8.03365       13.90907        1.00146
O         -9.11668       12.36642        2.90003
C        -10.74498       10.46404        5.01704
C        -11.77955       11.29836        4.82031
C        -12.82487       11.71368        5.78633
C        -13.42695       10.93990        6.72248
C        -14.52834       11.39417        7.50289
N        -15.42552       11.76654        8.13713
C        -13.06267        9.57844        6.93333
N        -12.75739        8.47137        7.09981
C        -13.26351       13.07591        5.36272
C        -12.78935       13.30083        4.06421
C        -12.00631       12.15004        3.60172
O        -11.71672       11.92221        2.44599
C        -13.02908       14.46038        3.34613
C        -13.79562       15.45968        3.95180
C        -14.28150       15.27191        5.27734
C        -13.99212       14.08221        5.98159
C        -15.05906       16.28304        5.86133
C        -15.36158       17.45036        5.15715
C        -14.88059       17.63137        3.86363
C        -14.09684       16.64477        3.26569
H          4.47968       -1.36955       -1.22948
H          0.63134        0.05008       -4.11922
H         -0.00288       -2.30971       -4.39242
H          0.42434       -4.69645       -3.98068
H          2.44155       -5.41410       -2.73246
H          3.99452       -3.74313       -1.80935
H          2.60746        2.96125        0.62686
H         -1.55624        6.47026        4.17413
H         -0.45314        5.69075        3.09291
H         -2.84819        4.39524        4.51632
H         -1.13650        4.16140        4.90680
H         -1.79542        3.52438        3.38825
H         -5.30969        7.92212       -2.67720
H         -6.19361        8.87056       -1.48934
H         -6.85675        5.99646       -2.34943
H         -7.73307        7.46336       -2.82123
H         -7.76019        6.91725       -1.13533
H         -6.05702        9.51063        0.74449
H         -6.86134        7.20574        2.63090
H        -10.65071        9.91987        5.95361
H        -12.62589       14.57341        2.34333
H        -14.35193       13.98238        7.00114
H        -15.45148       16.16648        6.86988
H        -15.97774       18.21797        5.61904
H        -15.11897       18.54015        3.31642
H        -13.73114       16.80683        2.25340
