103

C         -2.21690        1.65896       -2.82969
C         -2.65059        1.85554       -4.09449
C         -3.52304        0.91922       -4.73278
N         -4.20976        0.13800       -5.24714
C         -2.23939        2.93949       -4.91533
N         -1.98155        3.83325       -5.60860
C         -2.68247        0.55443       -1.96557
C         -1.67332        0.20794       -1.06273
C         -1.83383       -0.79859       -0.12526
C         -3.09549       -1.41722       -0.03258
C         -4.17137       -0.95237       -0.84200
C         -3.95284        0.02860       -1.81269
C         -5.46058       -1.46380       -0.65715
C         -5.68980       -2.48139        0.26355
C         -4.63107       -2.99493        1.00759
C         -3.34653       -2.45775        0.87390
C         -0.59103        1.21477       -1.14205
O          0.44356        1.23509       -0.50857
C         -1.11645        2.27559       -2.08758
C         -0.76613        3.54461       -1.83255
C         -1.42910        4.75613       -2.27318
C         -2.68068        5.18043       -1.95228
N         -3.64716        4.45840       -1.14304
O         -3.30863        3.41536       -0.57400
O         -4.78706        4.93810       -1.08134
C         -2.93099        6.52323       -2.42875
C         -1.80942        7.00159       -2.98590
C         -0.79842        5.94199       -2.94413
C          0.44480        6.02064       -3.46877
C          1.25869        4.85641       -3.81624
C          2.40640        5.29626       -4.34976
C          2.39843        6.74197       -4.32399
N          3.56787        7.52178       -4.67086
O          4.37177        6.99207       -5.45204
O          3.72736        8.63138       -4.14817
C          1.23755        7.23324       -3.83546
C          0.91175        8.62761       -3.63188
C          0.51489        9.13280       -2.45054
C          0.12860       10.48427       -2.30265
N         -0.41923       11.14484       -3.36525
C         -0.72786       12.44650       -3.05275
C         -0.39850       12.60263       -1.71705
C          0.10916       11.36308       -1.24132
C         -1.29195       13.35027       -4.06730
C         -1.58782       14.66255       -3.72569
N         -2.11380       15.55993       -4.57269
C         -2.36609       15.13205       -5.83329
C         -2.07252       13.84412       -6.31621
C         -1.54080       12.92501       -5.39232
N         -1.27944       11.63832       -5.79436
C         -1.53740       11.29651       -7.07588
C         -2.03511       12.19984       -7.97300
N         -2.28975       13.46640       -7.60873
C         -2.98106       16.18808       -6.65348
C         -3.82604       15.94661       -7.66374
C         -4.43751       16.97591       -8.45676
C         -4.81391       16.82465       -9.73461
C         -5.38334       17.83733      -10.63385
C         -6.24491       18.81382      -10.28287
C         -6.83128       19.68728      -11.23216
N         -7.28982       20.40366      -12.01456
C         -6.70267       19.00788       -8.94809
N         -7.07790       19.17406       -7.86950
C         -4.97241       17.45146      -12.01210
C         -4.46039       16.14733      -11.97276
C         -4.43882       15.64446      -10.59380
O         -4.15780       14.50786      -10.27903
C         -3.97217       15.47505      -13.08276
C         -3.97387       16.14631      -14.30826
C         -4.46931       17.47935      -14.38006
C         -4.96255       18.12358      -13.22526
C         -4.44831       18.14459      -15.61343
C         -3.94930       17.51678      -16.75563
C         -3.46377       16.21418      -16.68212
C         -3.47560       15.53125      -15.46571
H         -1.02654       -1.04643        0.55771
H         -4.78866        0.40659       -2.39433
H         -6.30016       -1.07110       -1.22815
H         -6.69446       -2.87574        0.39208
H         -4.81000       -3.80899        1.70529
H         -2.54393       -2.86194        1.48644
H          0.03062        3.72549       -1.10355
H         -3.88337        7.02916       -2.36865
H         -1.73457        7.95540       -3.48280
H          0.96150        3.82291       -3.77623
H          3.19964        4.69258       -4.76341
H          1.03340        9.26829       -4.50515
H          0.46099        8.50070       -1.56767
H         -0.58789       10.76035       -4.28852
H         -0.50736       13.50544       -1.13016
H          0.44765       11.15107       -0.23564
H         -1.41282       15.04647       -2.72489
H         -1.32886       10.27113       -7.35762
H         -2.25195       11.94491       -9.00387
H         -2.71570       17.20120       -6.36545
H         -4.09717       14.92641       -7.92341
H         -4.55611       17.92598       -7.94201
H         -3.57686       14.46802      -12.97933
H         -5.30255       19.15079      -13.31163
H         -4.82050       19.16392      -15.69771
H         -3.93858       18.04837      -17.70393
H         -3.07296       15.72916      -17.57317
H         -3.08659       14.51537      -15.43020
