110

C          2.43675        4.49983       -0.66328
C          1.97179        4.58559        0.60555
C          1.80948        3.42591        1.43703
N          1.64209        2.48558        2.08094
C          1.68802        5.82270        1.23526
N          1.48043        6.81982        1.80358
C          3.11889        3.32326       -1.24868
C          4.10284        3.78921       -2.13733
C          4.94955        2.93999       -2.82726
C          4.76023        1.55772       -2.67212
C          3.70785        1.07001       -1.84220
C          2.89906        1.96306       -1.12102
C          3.47493       -0.30990       -1.76487
C          4.27616       -1.20634       -2.47055
C          5.32766       -0.73532       -3.25141
C          5.56833        0.63651       -3.35350
C          3.95069        5.24919       -2.33454
O          4.62317        5.96894       -3.04337
C          2.67967        5.59192       -1.60582
C          1.85474        6.45635       -2.22334
C          0.43848        6.43953       -2.05421
S         -0.26407        7.50594       -0.93415
C         -1.86428        7.01087       -1.28417
C         -1.86287        5.91507       -2.13333
C         -0.55511        5.76238       -2.76135
C         -0.36184        4.89095       -3.99090
N          0.10784        5.70517       -5.19673
O          1.19997        5.39583       -5.68650
O         -0.64978        6.58747       -5.62782
C         -1.64915        4.15728       -4.43964
C         -2.56802        3.78644       -3.27655
C         -3.05113        5.04822       -2.52979
N         -3.87484        4.59136       -1.31807
O         -3.56167        3.52742       -0.76534
O         -4.82027        5.31726       -0.98041
C         -2.96535        7.75201       -0.77303
C         -2.91635        8.37383        0.41500
C         -3.97803        9.18521        0.88340
S         -4.21205        9.27249        2.58294
C         -5.60973       10.23521        2.41955
C         -5.98039       10.34296        1.09168
C         -4.86618       10.02861        0.22743
C         -4.82540       10.48848       -1.22039
N         -3.65701       11.43521       -1.50938
O         -3.32262       12.23802       -0.62963
O         -3.17494       11.37841       -2.64946
C         -6.09855       11.24526       -1.64549
C         -7.35569       10.66303       -0.99438
C         -7.29974       10.83094        0.54006
N         -8.48639       10.04622        1.09190
O         -9.53608       10.68006        1.25480
O         -8.34899        8.82969        1.29111
C         -6.20366       10.77235        3.58231
C         -7.14483       10.10508        4.26246
C         -7.76283       10.64364        5.44425
C         -7.98699       11.95962        5.65208
C         -8.65568       12.12329        6.93899
C         -8.82694       10.75611        7.46893
C         -8.31531        9.90620        6.56560
C         -9.39285       10.34720        8.68716
N         -9.85301        9.98837        9.69212
C         -9.02102       13.30264        7.48029
C         -9.66178       13.45801        8.78314
C         -9.87082       14.76873        9.00160
C         -9.39172       15.51803        7.85760
C         -8.87378       14.66805        6.94166
C         -8.33652       15.07729        5.69882
N         -7.89237       15.43744        4.68627
C        -10.47851       15.23218       10.19633
O        -10.69066       16.58395       10.43293
C        -11.27921       16.63885       11.65433
C        -11.41779       15.34698       12.12554
N        -10.90781       14.47558       11.20346
C        -12.01079       15.13567       13.37476
C        -12.44298       16.24019       14.11643
C        -12.26930       17.51400       13.58820
C        -11.68947       17.75959       12.35439
O        -12.75935       18.41413       14.48464
C        -13.20580       17.62989       15.50796
N        -13.04392       16.33412       15.34546
H          5.69805        3.34188       -3.50454
H          2.09289        1.57695       -0.50501
H          2.66151       -0.70279       -1.15687
H          4.08003       -2.27412       -2.40694
H          5.95856       -1.43796       -3.79048
H          6.39141        0.97869       -3.97784
H          2.24542        7.09911       -3.01230
H          0.42957        4.16171       -3.78404
H         -1.36775        3.24940       -4.98752
H         -2.23941        4.76162       -5.14103
H         -2.01365        3.11500       -2.60767
H         -3.42969        3.22049       -3.65134
H         -3.74589        5.61574       -3.16347
H         -3.84394        7.80870       -1.40677
H         -2.07112        8.22911        1.08257
H         -4.68910        9.63571       -1.88876
H         -6.19314       11.20572       -2.73835
H         -6.03535       12.30910       -1.38167
H         -7.44996        9.60465       -1.28044
H         -8.24181       11.17079       -1.39270
H         -7.45793       11.88071        0.81415
H         -5.83900       11.74149        3.91978
H         -7.46864        9.11380        3.95061
H         -7.69982       12.73869        4.96672
H         -8.27989        8.82950        6.65324
H         -9.92900       12.68418        9.48339
H         -9.44175       16.58967        7.77716
H        -12.13416       14.12985       13.76254
H        -11.56511       18.76019       11.96392
H        -13.64656       18.14479       16.34986
