106

C         -1.69483        0.32094       -2.51548
C         -2.89960        0.22118       -1.90762
C         -4.07323       -0.16705       -2.61041
N         -5.03182       -0.47687       -3.19412
C         -3.06691        0.28984       -0.49638
N         -3.30357        0.25514        0.63822
C         -1.40680       -0.32381       -3.82159
C         -0.16467       -0.96472       -3.71490
C          0.30313       -1.83360       -4.69212
C         -0.47580       -2.01240       -5.85294
C         -1.66874       -1.25152       -6.02584
C         -2.13017       -0.41206       -4.99957
C         -2.39333       -1.36035       -7.22110
C         -1.99268       -2.24598       -8.21964
C         -0.86581       -3.04039       -8.03112
C         -0.10645       -2.91822       -6.86271
C          0.52911       -0.50621       -2.47918
O          1.62612       -0.83261       -2.09640
C         -0.40245        0.53352       -1.87583
C          0.11731        1.57028       -1.19257
C         -0.47084        2.91087       -0.93096
C         -1.12560        3.32384        0.22720
C         -1.59139        4.69711        0.45103
N         -2.26059        4.96623        1.58833
C         -2.35876        3.98578        2.52261
C         -1.88817        2.71100        2.30519
N         -1.28177        2.36799        1.15079
F         -2.03132        1.76403        3.24277
F         -2.92001        4.29792        3.69905
C         -1.32683        5.77802       -0.44383
C         -0.44611        5.41415       -1.50492
C         -0.10052        3.96195       -1.80239
N          0.58662        3.80620       -2.94735
S          1.02016        5.31451       -3.45202
N          0.25981        6.23297       -2.30022
C         -1.85191        7.17962       -0.24592
N         -2.55583        8.00034       -1.19151
C         -2.86023        7.87453       -2.60083
C         -1.68748        7.84470       -3.54995
C         -3.11329        9.15052       -0.57416
O         -3.84581       10.01250       -1.01652
C         -2.63344        9.05121        0.78146
C         -1.84688        7.85243        0.93251
C         -1.39480        7.87433        2.36094
O         -0.63603        7.09717        2.90692
N         -1.97710        9.06627        2.88024
C         -1.69353        9.59830        4.20266
C         -0.42655       10.44282        4.20281
C         -2.71410        9.74062        1.92092
C         -3.37720       10.99273        2.15032
C         -4.69282       11.22281        1.91082
C         -5.25565       12.48401        2.23702
S         -5.96072       12.72158        3.78805
C         -6.29263       14.36206        3.34409
N         -5.88448       14.63760        2.11835
N         -5.30774       13.56081        1.47586
C         -6.86785       15.30403        4.24756
C         -7.59961       14.96859        5.32312
C         -8.14764       15.91723        6.27122
C         -9.00978       16.91938        6.03741
C         -9.53887       17.95384        6.96013
C         -9.68366       17.86471        8.30728
C        -10.28881       18.88832        9.09316
N        -10.77365       19.71958        9.74072
C         -9.29275       16.71303        9.04929
N         -8.96818       15.77556        9.65717
C        -10.04687       19.06381        6.09586
C        -10.05970       18.62287        4.76745
C         -9.51418       17.26682        4.66374
O         -9.50457       16.59728        3.65231
C        -10.48130       19.40047        3.69960
C        -10.90653       20.70299        3.96286
C        -10.89346       21.19335        5.29882
C        -10.45373       20.36614        6.35591
C        -11.31984       22.50634        5.54332
C        -11.74608       23.32596        4.49627
C        -11.75236       22.84491        3.19067
C        -11.33639       21.54137        2.92367
H          1.24905       -2.34949       -4.55910
H         -3.05419        0.14318       -5.13402
H         -3.28635       -0.75926       -7.38358
H         -2.56980       -2.32314       -9.13811
H         -0.57472       -3.75324       -8.79923
H          0.77337       -3.54838       -6.74664
H          1.17858        1.52727       -0.93850
H         -3.40908        8.77812       -2.90350
H         -3.55483        7.04740       -2.75675
H         -0.81736        8.38040       -3.15486
H         -1.94040        8.29181       -4.51557
H         -1.45442        6.80702       -3.77566
H         -1.58897        8.77041        4.91062
H         -2.54596       10.20354        4.53935
H          0.45489        9.80389        4.31335
H         -0.43664       11.15280        5.03559
H         -0.31104       11.01089        3.27331
H         -2.77028       11.78613        2.56513
H         -5.34682       10.46957        1.49776
H         -6.70167       16.34872        3.99933
H         -7.78816       13.92870        5.58156
H         -7.77032       15.72187        7.27110
H        -10.45898       18.99589        2.69034
H        -10.43304       20.78750        7.35510
H        -11.32811       22.90679        6.55534
H        -12.07351       24.34245        4.70278
H        -12.08178       23.48637        2.37646
H        -11.34880       21.18512        1.89543
