101

C          8.78431        8.65192       -3.62739
C          8.99537        8.51024       -4.95917
C         10.27658        8.18997       -5.51027
N         11.30384        7.92022       -5.96799
C          7.95807        8.68275       -5.92206
N          7.09954        8.79845       -6.69839
C          9.85012        8.53760       -2.57122
C          9.35658        9.11839       -1.40247
C         10.06653        9.25444       -0.22348
C         11.29058        8.61078       -0.13236
C         11.79684        7.88996       -1.24953
C         11.08740        7.90227       -2.48505
C         12.96730        7.13387       -1.05859
C         13.60152        7.08783        0.19018
C         13.10552        7.82570        1.26115
C         11.96163        8.59784        1.09493
C          7.91178        9.32550       -1.49829
O          7.20039        9.53869       -0.54050
C          7.52621        9.06447       -2.92768
C          6.24186        9.18182       -3.33085
C          5.08212        9.54571       -2.50880
C          4.87343       10.69389       -1.80264
N          5.67728       11.90266       -1.86143
O          6.83505       11.85960       -2.29762
O          5.11344       12.94973       -1.50592
C          3.66609       10.63740       -1.00763
C          3.01924        9.50264       -1.28948
C          3.77005        8.79557       -2.33250
C          3.27322        7.71590       -2.98420
C          4.01268        6.84695       -3.89783
C          3.21488        5.81820       -4.23041
C          1.91560        6.01460       -3.62227
N          0.78417        5.13534       -3.87995
O         -0.28838        5.32695       -3.29348
O          0.97790        4.20941       -4.68112
C          1.87744        7.15491       -2.89622
C          0.67946        7.72011       -2.31047
C          0.09268        8.86534       -2.70698
C         -1.14746        9.36582       -2.13507
C         -1.93659       10.21366       -2.81615
N         -1.35633        9.01448       -0.82374
N         -2.54058        8.93661       -0.44432
C         -2.64309        9.04324        0.95995
C         -3.58659        8.24989        1.59628
N         -3.88676        8.33486        2.90300
C         -3.20940        9.26675        3.62212
C         -2.23792       10.13542        3.09377
C         -1.94377       10.00108        1.72278
N         -1.00709       10.81637        1.15546
C         -0.37557       11.71979        1.92791
C         -0.67397       11.85718        3.25432
N         -1.60595       11.08803        3.84089
C         -3.65785        9.30830        5.02349
C         -2.90013        9.68766        6.06195
C         -3.38759        9.68109        7.41693
C         -2.62572        9.59959        8.51713
C         -3.06145        9.44700        9.92032
C         -4.19781        9.92692       10.46824
C         -4.49626        9.78487       11.84707
N         -4.74693        9.66506       12.97514
C         -5.17590       10.66307        9.73392
N         -5.98177       11.25656        9.13838
C         -1.92077        8.79591       10.63854
C         -0.79948        8.81366        9.79971
C         -1.14014        9.36934        8.48816
O         -0.34057        9.55634        7.59518
C          0.44169        8.30648       10.14936
C          0.57970        7.72661       11.41086
C         -0.54342        7.66245       12.28108
C         -1.79105        8.19377       11.88198
C         -0.38641        7.06075       13.53765
C          0.84706        6.53692       13.93182
C          1.94267        6.60279       13.07580
C          1.81074        7.19322       11.81976
H          9.61452        9.75717        0.62600
H         11.49750        7.33283       -3.31467
H         13.37759        6.53534       -1.86939
H         14.48052        6.46379        0.33270
H         13.59156        7.78465        2.23271
H         11.56985        9.15186        1.94642
H          5.95876        8.96728       -4.35443
H          3.39404       11.34993       -0.24366
H          2.14003        9.15789       -0.76881
H          5.02776        6.95358       -4.23416
H          3.46538        4.98684       -4.87251
H          0.19076        7.10534       -1.55419
H          0.53928        9.47175       -3.49127
H         -1.73390       10.50806       -3.83800
H         -2.82744       10.63099       -2.35440
H         -4.15972        7.51215        1.03965
H          0.37382       12.33006        1.43989
H         -0.18069       12.58278        3.88907
H         -4.66755        8.93871        5.18004
H         -1.87371       10.00879        5.90843
H         -4.47154        9.69731        7.48367
H          1.26633        8.35176        9.44293
H         -2.63169        8.09830       12.56198
H         -1.22572        6.99547       14.22720
H          0.95112        6.07614       14.91126
H          2.90101        6.19304       13.38472
H          2.67795        7.23163       11.16317
