96

C          2.49297        2.79806       -2.40630
C          2.03829        1.57355       -2.04498
C          2.82326        0.40073       -2.22978
N          3.46934       -0.54927       -2.40009
C          0.72027        1.37596       -1.54327
N         -0.35442        1.23827       -1.12024
C          3.79739        3.14021       -3.03587
C          3.62737        4.34610       -3.73364
C          4.65176        5.05378       -4.33090
C          5.93734        4.52902       -4.22970
C          6.15038        3.28330       -3.56615
C          5.06873        2.59428       -2.96632
C          7.45716        2.77975       -3.50119
C          8.52802        3.49392       -4.04649
C          8.31312        4.72385       -4.66261
C          7.02264        5.23767       -4.75836
C          2.24771        4.81291       -3.60374
O          1.69263        5.60927       -4.32826
C          1.70584        4.04377       -2.44188
C          0.90655        4.55010       -1.49067
C          0.43338        5.89446       -1.45766
S         -1.05047        6.21624       -0.66462
C         -0.91074        7.91782       -0.86454
C          0.22714        8.22627       -1.58679
C          0.99114        7.07592       -1.91199
C          0.62310        9.56352       -1.94734
N          0.96039       10.63564       -2.22496
C         -1.90508        8.81739       -0.39475
C         -2.81225        8.53623        0.54759
C         -3.85989        9.44829        0.86425
S         -4.34045        9.54461        2.49932
C         -5.60494       10.65248        2.20251
C         -5.71382       10.90868        0.83792
C         -4.64544       10.27403        0.06736
C         -4.55673       10.44252       -1.43916
F         -3.29119       10.71634       -1.86365
C         -5.38070       11.61643       -1.94556
C         -6.77919       11.59270       -1.36452
C         -6.76386       11.76282        0.15964
F         -8.01267       11.42331        0.59050
C         -6.40495       11.18456        3.29509
O         -7.37767       12.13056        3.06652
C         -8.01701       12.46471        4.23883
C         -7.38990       11.76163        5.25249
C         -6.39223       10.94377        4.66497
C         -5.55035       10.05406        5.39866
N         -4.89287        9.34369        6.03755
C         -7.69532       11.87543        6.64206
N         -7.93569       11.98259        7.77135
C         -9.11115       13.37444        4.31052
C         -9.23976       14.35052        3.40090
C        -10.32378       15.31531        3.42272
C        -10.50296       16.34023        2.57174
C        -11.54499       17.40133        2.55825
C        -12.79487       17.34084        3.08455
C        -13.75456       18.38310        2.93273
N        -14.54136       19.22861        2.81702
C        -13.28276       16.20274        3.79004
N        -13.67662       15.27943        4.37017
C        -11.01662       18.50034        1.69107
C         -9.86200       18.04202        1.04756
C         -9.51255       16.69391        1.49434
O         -8.58218       16.05103        1.05396
C         -9.12555       18.79143        0.14387
C         -9.55392       20.08885       -0.13559
C        -10.70569       20.60470        0.52003
C        -11.42297       19.80463        1.43822
C        -11.11141       21.91669        0.23562
C        -10.40529       22.70177       -0.67825
C         -9.28136       22.18940       -1.31992
C         -8.85531       20.89011       -1.04888
H          4.45002        6.00746       -4.81063
H          5.26282        1.67495       -2.42088
H          7.65851        1.82499       -3.01957
H          9.53584        3.09118       -3.98385
H          9.14990        5.28485       -5.07121
H          6.87401        6.20204       -5.24111
H          0.66218        3.95106       -0.61561
H          1.92738        7.14167       -2.45152
H         -1.88650        9.79750       -0.84805
H         -2.77098        7.60493        1.10879
H         -4.87044        9.50860       -1.92037
H         -5.40745       11.58380       -3.04115
H         -4.87508       12.55563       -1.68485
H         -7.27184       10.64881       -1.63170
H         -7.38148       12.38906       -1.81507
H         -6.58765       12.81432        0.41307
H         -9.82697       13.26594        5.12150
H         -8.49094       14.42970        2.61670
H        -11.01647       15.16054        4.24537
H         -8.23679       18.36777       -0.31610
H        -12.28063       20.24633        1.93479
H        -11.98821       22.34170        0.72064
H        -10.73581       23.71554       -0.89031
H         -8.73447       22.80164       -2.03260
H         -7.97303       20.50852       -1.55919
