115

C          4.36030        2.06749       -8.52241
C          3.80075        0.83993       -8.48487
C          4.59229       -0.33522       -8.49147
N          5.26758       -1.27702       -8.46877
C          2.37559        0.65406       -8.47195
N          1.23109        0.51472       -8.42080
C          5.80164        2.41164       -8.62766
C          5.91110        3.65032       -9.27855
C          7.08415        4.37061       -9.39542
C          8.17436        3.91627       -8.66238
C          8.07797        2.70708       -7.90788
C          6.90289        1.92345       -7.94679
C          9.13573        2.37108       -7.05410
C         10.25225        3.20370       -6.93828
C         10.34891        4.36423       -7.70182
C          9.31986        4.71300       -8.57163
C          4.58725        4.27266       -9.38266
O          4.36630        5.36765       -9.85418
C          3.67334        3.35338       -8.60957
C          2.64859        3.75994       -7.84226
C          2.21970        5.12828       -7.70182
C          1.75154        5.94485       -8.68427
N          1.49297        5.55311      -10.06259
O          1.10084        6.44417      -10.83041
O          1.60374        4.36099      -10.38752
C          1.52970        7.28237       -8.19241
C          1.78105        7.28561       -6.87724
C          2.11425        5.94182       -6.44198
C          2.26812        5.60931       -5.13631
C          2.89838        4.38671       -4.64459
C          2.93833        4.44979       -3.30419
C          2.27146        5.65991       -2.87075
N          1.95468        5.90271       -1.47615
O          0.92192        6.52032       -1.18660
O          2.73849        5.42592       -0.64298
C          1.86339        6.41366       -3.91650
C          1.02070        7.60000       -3.86532
C          1.28416        8.72295       -3.17122
C          0.45065        9.89744       -3.22173
N         -0.08649       10.54696       -2.09600
C          0.12206       10.13605       -0.71003
C         -0.58580       11.00646        0.32331
C         -0.82373       11.69444       -2.47662
O         -1.42835       12.52713       -1.83299
C         -0.69783       11.69282       -3.93181
C          0.11796       10.58417       -4.32141
C          0.28861       10.68304       -5.78056
O          0.97790       10.00696       -6.50825
N         -0.48074       11.79455       -6.13185
C         -0.57801       12.23206       -7.50736
C         -1.62421       11.45820       -8.29527
C         -1.04655       12.38617       -5.01421
C         -1.80803       13.58965       -5.06676
C         -3.03799       13.70073       -4.54669
C         -3.74303       14.92388       -4.65637
S         -5.33674       15.05347       -4.01465
C         -5.39441       16.65952       -4.63921
N         -4.27763       17.02419       -5.23611
N         -3.32678       16.03298       -5.23608
C         -6.58551       17.41293       -4.49335
C         -6.88276       18.38175       -5.37064
C         -8.08142       19.17613       -5.24461
C         -8.11482       20.51457       -5.17904
C         -9.26512       21.39979       -4.91256
C        -10.55668       21.18615       -5.26731
C        -11.58422       22.14591       -5.05407
N        -12.42433       22.92707       -4.87509
C        -10.98191       20.00588       -5.94525
N        -11.32989       19.04133       -6.48858
C         -8.69740       22.65865       -4.34503
C         -7.30744       22.64330       -4.52550
C         -6.87793       21.36926       -5.11855
O         -5.74554       21.10170       -5.46078
C         -6.47020       23.67666       -4.13181
C         -7.04486       24.78876       -3.50707
C         -8.44936       24.82012       -3.27945
C         -9.26386       23.74497       -3.69292
C         -9.00928       25.93543       -2.63933
C         -8.20898       27.00580       -2.23721
C         -6.83586       26.97401       -2.46217
C         -6.25548       25.87109       -3.08993
H          7.08399        5.33818       -9.89111
H          6.82688        1.03361       -7.32798
H          9.08103        1.48210       -6.42938
H         11.04444        2.95246       -6.23767
H         11.21515        5.01348       -7.60354
H          9.39849        5.63978       -9.13746
H          2.14328        3.06642       -7.17659
H          1.32117        8.14454       -8.80860
H          1.86676        8.14910       -6.25156
H          3.34073        3.60249       -5.23260
H          3.37993        3.72790       -2.63316
H          0.11452        7.53846       -4.46990
H          2.17607        8.79989       -2.55447
H          1.20009       10.15645       -0.51230
H         -0.22438        9.10228       -0.60160
H         -0.28000       12.05457        0.23053
H         -0.35050       10.69187        1.34287
H         -1.67271       10.95036        0.19347
H          0.39848       12.06781       -7.97875
H         -0.77990       13.30479       -7.54702
H         -1.35096       10.40117       -8.38962
H         -1.71043       11.87212       -9.30502
H         -2.60670       11.50874       -7.81596
H         -1.32912       14.43363       -5.56002
H         -3.51534       12.85843       -4.05423
H         -7.23957       17.19430       -3.65510
H         -6.22032       18.60826       -6.20712
H         -8.98333       18.58000       -5.13492
H         -5.39854       23.60295       -4.29835
H        -10.32568       23.79047       -3.47417
H        -10.08036       25.98556       -2.45183
H         -8.66036       27.86609       -1.74906
H         -6.21445       27.80907       -2.14806
H         -5.17908       25.86579       -3.25097
