101

C          7.95858        3.70817        2.43732
S          6.29982        3.81350        2.18295
C          6.19571        2.17638        1.64583
C          4.78921        1.74981        1.26669
C          4.62779        0.95193       -0.01734
C          7.43465        1.51628        1.74919
C          8.49398        2.46941        2.13799
C          9.99288        2.29269        2.25777
C         10.47266        1.80191        3.61307
C          7.59979        0.06573        1.46723
C          6.60277       -0.87813        1.79194
C          6.72301       -2.25212        1.49437
C          7.90677       -2.70647        0.89633
C          8.88383       -1.76887        0.60186
C          8.76702       -0.40296        0.85006
O          9.94493       -2.35228       -0.01357
C          9.62502       -3.66067       -0.18413
C          8.39892       -3.94833        0.40381
C          7.91960       -5.26633        0.33695
C          8.65197       -6.20254       -0.40677
C          9.84048       -5.85000       -1.06913
C         10.38814       -4.57264       -0.90430
C         10.54108       -6.78437       -1.95564
C          9.89339       -7.68372       -2.71084
C         10.62090       -8.56460       -3.54752
S         11.20139      -10.01748       -2.88169
C         11.89330      -10.60649       -4.37021
C         11.65802       -9.66188       -5.36596
C         10.94186       -8.49234       -4.88101
C         10.58983       -7.39254       -5.67272
C         10.99941       -7.50470       -7.01954
C         10.68872       -6.41498       -7.90104
N         10.43610       -5.53557       -8.60220
C         11.70092       -8.64372       -7.52659
C         12.09965       -8.71599       -8.90669
N         12.44906       -8.82546      -10.00501
C         12.04162       -9.75240       -6.71851
C         12.56969      -11.94516       -4.31583
C         13.13098      -12.53802       -5.45920
C         13.75674      -13.78881       -5.46700
C         13.83026      -14.48797       -4.26878
C         13.29158      -13.91768       -3.12992
C         12.66528      -12.67322       -3.10542
O         13.45680      -14.74220       -2.06018
C         14.09559      -15.85164       -2.52237
C         14.35148      -15.74038       -3.88234
C         15.00792      -16.78260       -4.55494
C         15.37629      -17.90667       -3.81799
C         15.10441      -17.98448       -2.44693
C         14.45238      -16.95162       -1.75908
C         15.55024      -19.15173       -1.70575
C         14.76504      -20.22117       -1.50784
C         15.22177      -21.34430       -0.75525
S         16.29813      -21.12131        0.57412
C         16.39116      -22.78433        0.90952
C         17.28860      -23.22694        2.02614
C         17.25346      -24.72275        2.27992
C         15.57825      -23.50454        0.06224
C         14.89006      -22.68837       -0.90094
C         13.95255      -23.26342       -1.93091
C         14.66376      -23.66978       -3.21353
H          8.49744        4.57786        2.78890
H          4.15039        2.63804        1.14940
H          4.35403        1.20570        2.11310
H          4.33306        1.60672       -0.84426
H          3.81739        0.22384        0.11148
H          5.52149        0.41383       -0.33361
H         10.44958        3.27902        2.08564
H         10.42029        1.68393        1.46280
H          9.76393        2.01837        4.41741
H         11.42461        2.28601        3.86372
H         10.65618        0.72325        3.59249
H          5.67339       -0.56371        2.25742
H          5.90091       -2.93393        1.69219
H          9.55624        0.24390        0.50655
H          6.98016       -5.54893        0.80197
H          8.25662       -7.21385       -0.48466
H         11.31369       -4.26397       -1.37587
H         11.62340       -6.68387       -2.00994
H          8.81190       -7.78152       -2.70218
H         10.05835       -6.51853       -5.30227
H         12.56137      -10.56902       -7.19165
H         13.11998      -12.07585       -6.42615
H         14.16377      -14.19524       -6.38717
H         12.27378      -12.32362       -2.15777
H         15.22534      -16.71513       -5.61458
H         15.89151      -18.72233       -4.32277
H         14.24521      -16.99161       -0.69640
H         16.56482      -19.08193       -1.32648
H         13.76584      -20.25664       -1.93530
H         17.00226      -22.70553        2.94841
H         18.32036      -22.93114        1.79616
H         16.24530      -25.05157        2.55309
H         17.92946      -24.98156        3.10014
H         17.56786      -25.28150        1.39211
H         15.47218      -24.58137        0.11262
H         13.15881      -22.54554       -2.16572
H         13.45050      -24.14357       -1.50953
H         15.21888      -22.83213       -3.64833
H         13.93673      -24.01771       -3.95484
H         15.37262      -24.48457       -3.03022
