117

C          1.71336        0.60670        1.13838
C          2.34503       -0.23437        0.28963
C          2.99646       -1.41877        0.74657
N          3.53818       -2.36941        1.13527
C          2.50896        0.08261       -1.08945
N          2.64275        0.32553       -2.21788
C          1.63777        0.47829        2.62154
C          1.55999        1.77925        3.14000
C          1.36685        2.06241        4.47623
C          1.18531        0.98934        5.34639
C          1.29553       -0.35134        4.86994
C          1.53833       -0.59880        3.49533
C          1.11642       -1.39722        5.79101
C          0.78144       -1.13073        7.12354
C          0.63174        0.18174        7.56298
C          0.85011        1.23692        6.68223
C          1.55879        2.76986        2.05206
O          1.85837        3.93897        2.15172
C          1.22625        1.97161        0.82993
C          0.38898        2.37721       -0.14536
C         -0.31154        3.69118       -0.21046
C         -1.59030        3.76716        0.35574
C         -2.27401        4.98172        0.39752
C         -1.71181        6.14432       -0.14560
C         -0.45909        6.07451       -0.77341
C          0.24986        4.83488       -0.80555
N          1.45573        4.76041       -1.40893
C          1.96680        5.88945       -1.96376
C          1.28529        7.10104       -1.91552
N          0.07025        7.19058       -1.32396
C          1.76224        8.34909       -2.59495
C          3.26134        5.72549       -2.69645
C         -2.45229        7.41659       -0.04044
N         -2.29506        8.34850        1.01015
C         -1.45830        8.25009        2.19064
C         -1.81862        7.11468        3.13008
C         -3.06674        9.50751        0.79095
O         -3.19191       10.51591        1.45631
C         -3.72356        9.21344       -0.48082
C         -3.32509        7.91086       -0.93758
C         -3.97937        7.71506       -2.25801
O         -3.87460        6.75930       -3.00026
N         -4.65908        8.94472       -2.47378
C         -5.26060        9.28311       -3.75638
C         -4.22784        9.39829       -4.87386
C         -4.47265        9.81456       -1.40032
C         -4.91437       11.17735       -1.35786
C         -5.67792       11.68776       -0.37313
C         -6.11177       13.04857       -0.37703
S         -5.11929       14.25264       -1.12907
C         -6.19396       15.53532       -0.78653
C         -7.31869       15.06163       -0.15271
C         -7.22246       13.65944        0.18910
C         -8.16804       13.00674        0.99953
C         -9.22427       13.86058        1.42672
C        -10.21279       13.27818        2.29783
N        -10.98694       12.78042        3.00384
C         -9.32562       15.24581        1.04558
C        -10.40665       16.05433        1.54267
N        -11.25637       16.72913        1.95055
C         -8.37086       15.89895        0.22778
C         -5.74355       16.85264       -1.06589
C         -5.89746       17.45531       -2.25219
C         -5.24980       18.68750       -2.74560
C         -5.00074       19.81368       -2.03588
C         -4.45723       20.98799       -2.62476
N         -4.00525       21.94255       -3.11022
C         -5.32676       19.91982       -0.64244
N         -5.58781       19.97630        0.47427
C         -5.08155       18.49170       -4.21530
C         -5.85164       17.38272       -4.59995
C         -6.53482       16.80051       -3.43762
O         -7.44454       15.99995       -3.46450
C         -5.87689       16.87187       -5.88545
C         -5.09536       17.50342       -6.85592
C         -4.32132       18.64818       -6.50962
C         -4.30946       19.12503       -5.17945
C         -3.57056       19.28210       -7.51167
C         -3.56822       18.79553       -8.82098
C         -4.30118       17.65781       -9.14566
C         -5.05938       17.01388       -8.16863
H          1.29524        3.09377        4.80678
H          1.58177       -1.62653        3.14177
H          1.21809       -2.43501        5.47882
H          0.62506       -1.95103        7.81999
H          0.34361        0.38793        8.59090
H          0.72891        2.25724        7.04162
H          0.06443        1.68004       -0.91452
H         -2.06926        2.89353        0.79269
H         -3.23545        5.01006        0.90417
H          2.84753        8.38435       -2.71680
H          1.47936        9.23590       -2.01655
H          1.29546        8.41888       -3.58185
H          3.74246        4.78349       -2.41533
H          3.96085        6.53023       -2.45572
H          3.07509        5.71171       -3.77477
H         -1.56671        9.18000        2.76515
H         -0.40797        8.18263        1.89585
H         -2.86111        7.18057        3.44892
H         -1.20463        7.17252        4.03393
H         -1.65389        6.13860        2.67147
H         -5.80098       10.23250       -3.68223
H         -5.99497        8.51169       -4.01743
H         -3.50404       10.19111       -4.65833
H         -4.72411        9.63656       -5.81971
H         -3.66887        8.46829       -5.02176
H         -4.56353       11.80010       -2.17906
H         -5.99883       11.06196        0.45401
H         -8.10472       11.97440        1.32603
H         -8.44891       16.94397       -0.05058
H         -5.13798       17.29165       -0.27919
H         -6.47208       15.99092       -6.10896
H         -3.66904       19.96770       -4.93713
H         -2.98326       20.17035       -7.28561
H         -2.99123       19.30559       -9.58869
H         -4.28821       17.27313      -10.16251
H         -5.62355       16.12476       -8.44345
