125

C         -2.64686        3.31471        2.56964
C         -3.66521        3.86609        1.87289
C         -4.66563        4.66303        2.49918
N         -5.45299        5.33762        3.01720
C         -3.82978        3.61207        0.47982
N         -3.99252        3.37184       -0.64447
C         -2.55560        3.20161        4.03419
C         -1.95870        1.96381        4.32156
C         -1.80462        1.50161        5.61529
C         -2.16113        2.36410        6.66621
C         -2.62608        3.68311        6.38074
C         -2.84933        4.08590        5.05530
C         -2.84147        4.58093        7.43444
C         -2.65646        4.18108        8.75685
C         -2.27525        2.87290        9.04211
C         -2.02398        1.97128        8.00512
C         -1.38792        1.38370        3.07514
O         -0.80190        0.33055        2.95423
C         -1.57978        2.46484        2.04459
C         -0.58584        2.72268        1.17125
C         -0.33649        4.00013        0.56293
S         -0.79055        5.50517        1.33831
C          0.40447        4.33902       -0.54664
C          1.17535        3.65439       -1.56013
O          1.28258        2.44820       -1.69511
N          1.73714        4.66675       -2.32513
C          2.64383        4.44252       -3.43300
C          1.90890        4.37755       -4.76063
C          1.31614        5.93519       -1.96039
O          1.59554        7.00381       -2.47627
C          0.47956        5.72488       -0.80828
C         -0.25415        6.49668        0.04668
C         -0.55654        7.87704        0.05742
C         -1.67628        8.30995       -0.54470
C         -2.00628        9.69653       -0.66623
N         -2.17452       10.36971       -1.88074
C         -2.10003        9.83706       -3.22954
C         -1.03887        8.77901       -3.48584
C         -2.55353       11.71775       -1.66457
O         -2.83578       12.58890       -2.46370
C         -2.54336       11.82331       -0.19601
C         -2.20139       10.54444        0.34368
C         -2.21686       10.64444        1.80988
O         -2.01135        9.74698        2.60443
N         -2.52720       12.00039        2.02665
C         -2.74538       12.54450        3.35351
C         -1.52798       12.40958        4.25666
C         -2.74361       12.66060        0.82020
C         -3.11361       14.03229        0.70670
C         -4.23954       14.42220        0.09063
C         -4.58696       15.78838       -0.19438
C         -3.79506       16.85196        0.05938
C         -4.44435       18.05459       -0.44244
C         -5.71105       17.60243       -1.03333
C         -5.77801       16.26934       -0.87500
C         -6.71427       18.36106       -1.67551
N         -7.54441       18.97816       -2.20244
C         -3.92503       19.29357       -0.35184
C         -4.56365       20.50046       -0.85951
C         -3.77405       21.54783       -0.56676
C         -2.59228       21.06593        0.12611
C         -2.65807       19.73169        0.25831
C         -1.64347       18.96370        0.88278
N         -0.81621       18.33340        1.39305
C         -4.12185       22.89387       -0.90888
C         -4.22011       23.85555        0.01728
C         -4.59974       25.20562       -0.32070
C         -4.75192       26.22975        0.53192
C         -5.25207       27.59378        0.25652
C         -5.10131       28.30029       -0.89076
C         -5.55051       29.64324       -1.03089
N         -5.92133       30.73604       -1.14897
C         -4.42901       27.77809       -2.03639
N         -3.88949       27.34874       -2.97025
C         -5.80066       28.09946        1.55030
C         -5.39583       27.23083        2.57301
C         -4.65066       26.09398        2.02483
O         -4.10055       25.23909        2.68638
C         -5.73706       27.39087        3.90619
C         -6.55415       28.46926        4.24760
C         -7.00188       29.36362        3.23447
C         -6.61932       29.16786        1.88790
C         -7.83827       30.42872        3.59823
C         -8.23117       30.60990        4.92615
C         -7.79239       29.73089        5.91215
C         -6.95685       28.66671        5.57600
H         -1.36482        0.52587        5.79958
H         -3.20336        5.09169        4.84403
H         -3.14298        5.60780        7.23433
H         -2.81567        4.89183        9.56400
H         -2.15781        2.55743       10.07578
H         -1.71060        0.95984        8.25506
H          0.17968        1.96086        1.01372
H          3.19749        3.51208       -3.26676
H          3.36547        5.26758       -3.46195
H          1.23804        3.51353       -4.79188
H          2.62142        4.29084       -5.58696
H          1.30612        5.27720       -4.92276
H          0.13364        8.56317        0.54068
H         -2.36501        7.61632       -1.02334
H         -1.90559       10.67507       -3.91175
H         -3.09341        9.45351       -3.48734
H         -0.04016        9.16639       -3.26282
H         -1.06570        8.45405       -4.52924
H         -1.19687        7.87656       -2.89651
H         -3.58622       11.99939        3.79724
H         -3.02929       13.59897        3.28767
H         -1.38855       11.37157        4.57571
H         -1.65805       13.01448        5.15947
H         -0.61293       12.73215        3.74989
H         -2.38444       14.73869        1.09313
H         -4.93928       13.67650       -0.28375
H         -2.83403       16.79489        0.52298
H         -6.57463       15.62290       -1.21433
H         -5.51456       20.58376       -1.35734
H         -1.79287       21.70883        0.46561
H         -4.33575       23.08604       -1.95745
H         -4.03333       23.60290        1.05888
H         -4.81723       25.33904       -1.37725
H         -5.39632       26.67051        4.64523
H         -7.00499       29.85125        1.13814
H         -8.19803       31.13028        2.84778
H         -8.88375       31.43847        5.18996
H         -8.10287       29.87148        6.94454
H         -6.62907       27.98786        6.36106
