81

C         -0.71534       -1.06548        1.09094
C         -0.34629       -0.37336       -0.01178
C         -0.48733       -0.90752       -1.32399
N         -0.60119       -1.36259       -2.38576
C          0.35566        0.86517        0.09801
N          0.97311        1.84013        0.22337
C         -1.11227       -2.48984        1.13856
C         -0.61419       -3.03118        2.33633
C         -0.80078       -4.35084        2.70217
C         -1.62114       -5.13998        1.88637
C         -2.21605       -4.58192        0.71408
C         -1.92383       -3.26078        0.32514
C         -3.13016       -5.35294       -0.01693
C         -3.45033       -6.65027        0.38558
C         -2.83621       -7.20734        1.50395
C         -1.92105       -6.46030        2.24602
C         -0.09174       -1.94683        3.19864
O          0.42327       -2.05027        4.29090
C         -0.47264       -0.68427        2.48314
C         -0.84831        0.36810        3.22831
C         -1.64673        1.44139        2.73699
S         -2.14779        2.70351        3.80968
C         -2.93666        3.46681        2.47522
N         -2.84907        2.76113        1.36367
N         -2.14655        1.58878        1.52500
C         -3.56079        4.73352        2.65553
C         -3.62290        5.59678        1.62993
C         -4.21176        6.89811        1.71605
S         -5.01542        7.43216        0.27331
C         -5.58007        8.85115        1.00595
C         -5.14461        8.97358        2.30510
C         -5.52209       10.12274        3.07561
N         -5.86239       11.05730        3.67211
C         -4.30005        7.87576        2.71684
N         -3.73935        7.81584        3.97168
C         -2.49215        7.30074        4.38941
C         -1.41083        7.06926        3.56249
N         -0.30948        6.36814        3.91341
C         -0.23240        5.93754        5.17435
N         -1.19979        6.12593        6.08811
C         -2.29544        6.81168        5.67299
C          0.83527        4.98826        5.53686
C          1.98071        4.71504        4.88486
C          2.90395        3.56712        5.07984
C          3.26616        2.97619        6.24428
C          4.27474        1.97635        6.32156
N          5.09963        1.15678        6.38005
C          2.70910        3.36796        7.49872
N          2.24513        3.67509        8.51716
C          3.52855        3.30990        3.74852
C          3.29561        4.42395        2.93323
C          2.46714        5.41193        3.64089
O          2.34549        6.57346        3.31596
C          3.74700        4.52316        1.62700
C          4.42019        3.42670        1.07468
C          4.64083        2.26339        1.86467
C          4.19649        2.21925        3.20430
C          5.28386        1.15981        1.28172
C          5.68507        1.18744       -0.05547
C          5.46873        2.32652       -0.82489
C          4.85064        3.44345       -0.26082
H         -0.39187       -4.72436        3.63668
H         -2.39096       -2.84066       -0.56180
H         -3.62651       -4.94029       -0.89351
H         -4.18472       -7.22499       -0.17347
H         -3.08277       -8.22079        1.81052
H         -1.46555       -6.91212        3.12499
H         -0.65169        0.34328        4.29878
H         -3.94668        4.98421        3.63706
H         -3.23988        5.28913        0.65566
H         -6.20343        9.53497        0.44274
H         -4.17262        8.35442        4.72366
H         -1.39131        7.43155        2.53867
H         -3.06586        6.91524        6.43373
H          0.54054        4.40354        6.40183
H          3.53426        5.41666        1.04690
H          4.35767        1.30794        3.77225
H          5.46899        0.25811        1.86223
H          6.16286        0.31668       -0.49769
H          5.77313        2.34451       -1.86847
H          4.68833        4.32207       -0.88199
