103

C          0.72732        0.35003       -2.48813
C          2.02941        0.15060       -2.79820
C          2.45079       -0.83847       -3.73887
N          2.79316       -1.63796       -4.50390
C          3.07772        0.86542       -2.14979
N          3.92677        1.45613       -1.63403
C         -0.44597       -0.42711       -2.98894
C         -1.51550       -0.21668       -2.10702
C         -2.78183       -0.74437       -2.28972
C         -3.00416       -1.53886       -3.41596
C         -1.93766       -1.79406       -4.32474
C         -0.66279       -1.22181       -4.10711
C         -2.18385       -2.61573       -5.43557
C         -3.45106       -3.16082       -5.65719
C         -4.49429       -2.88847       -4.77703
C         -4.27239       -2.08250       -3.66159
C         -1.11817        0.68205       -1.01696
O         -1.72498        0.85051        0.01912
C          0.20009        1.25715       -1.44538
C          0.62636        2.48011       -1.08342
C         -0.11731        3.32425       -0.21748
S         -1.26099        4.42470       -0.86342
C         -1.71210        5.01467        0.69405
C         -0.96897        4.38909        1.68090
C         -0.05289        3.42811        1.15541
C         -1.09435        4.64146        3.08282
N         -1.19235        4.88751        4.21569
C         -2.74027        6.00333        0.75502
C         -2.77097        6.93702        1.72142
C         -3.75833        7.96652        1.84133
N         -4.08024        8.57560        3.05934
C         -3.54898        8.24703        4.37155
C         -4.34500        7.16895        5.09020
C         -5.01603        9.61110        2.88427
O         -5.51172       10.34801        3.70989
C         -5.25190        9.59907        1.42298
C         -4.43463        8.56525        0.85733
C         -4.63561        8.57592       -0.60179
O         -4.09490        7.87047       -1.42959
N         -5.59354        9.59291       -0.78235
C         -6.07784        9.92606       -2.10802
C         -7.57035        9.70829       -2.29581
C         -5.93199       10.19256        0.43868
C         -6.85005       11.29159        0.56347
C         -7.61756       11.47722        1.64808
C         -8.57222       12.50803        1.85172
C         -8.87373       13.00002        3.10774
O         -9.82687       13.96626        3.02698
C        -10.14751       14.05349        1.70990
N        -11.09891       15.05197        1.39046
O        -10.72016       15.93589        0.61023
O        -12.22586       14.94538        1.88750
C         -9.43385       13.16888        0.93347
C         -9.57720       12.95209       -0.47513
C        -10.41117       12.07482       -1.06773
C        -10.59139       11.68638       -2.49524
C        -10.18657       12.36304       -3.60219
C        -10.47309       11.93652       -4.92703
N        -10.69689       11.59373       -6.02011
C         -9.43200       13.56719       -3.53409
N         -8.78531       14.53095       -3.47669
C        -11.40961       10.42805       -2.49634
C        -11.84794       10.18064       -1.19144
C        -11.30405       11.17198       -0.25943
O        -11.54107       11.20842        0.93007
C        -12.64392        9.10128       -0.83392
C        -13.00718        8.18633       -1.82518
C        -12.55299        8.38037       -3.15761
C        -11.75524        9.50445       -3.47920
C        -12.90421        7.43318       -4.13418
C        -13.68365        6.32064       -3.80846
C        -14.13191        6.14041       -2.50361
C        -13.79821        7.06900       -1.51781
H         -3.57203       -0.52002       -1.57865
H          0.11757       -1.40592       -4.83955
H         -1.38764       -2.84575       -6.14123
H         -3.62401       -3.79860       -6.52071
H         -5.48190       -3.30662       -4.95552
H         -5.10096       -1.88245       -2.98479
H          1.51853        2.92525       -1.51192
H          0.60187        2.82637        1.77035
H         -3.49373        5.99133       -0.02789
H         -1.99037        6.97629        2.46960
H         -3.56433        9.15578        4.98530
H         -2.49955        7.95405        4.28363
H         -5.33501        7.53778        5.37893
H         -3.82245        6.86553        6.00433
H         -4.48403        6.28151        4.46574
H         -5.55742        9.30029       -2.84392
H         -5.80321       10.96285       -2.32746
H         -7.84482        8.65928       -2.14787
H         -7.86877       10.00095       -3.30763
H         -8.15266       10.30174       -1.59125
H         -6.89682       11.98419       -0.27132
H         -7.51813       10.79365        2.48947
H         -8.51092       12.77986        4.10496
H         -8.88345       13.54372       -1.06144
H        -12.95288        8.97385        0.20086
H        -11.41597        9.59823       -4.50554
H        -12.57061        7.54960       -5.16391
H        -13.94069        5.59344       -4.57521
H        -14.73914        5.27451       -2.25066
H        -14.15732        6.90771       -0.50300
