115

C          0.05761        1.78872       -0.81811
C         -0.26063        1.48735       -2.09444
C         -1.28774        0.55041       -2.41839
N         -2.09183       -0.23074       -2.68859
C          0.52110        1.91995       -3.20082
N          1.14084        2.23882       -4.12760
C         -0.49280        1.11701        0.37587
C          0.54784        0.98046        1.30788
C          0.36280        0.40407        2.55097
C         -0.94358        0.04518        2.91747
C         -2.02598        0.25633        2.01044
C         -1.78511        0.76032        0.72050
C         -3.33667        0.00250        2.43783
C         -3.58745       -0.45670        3.73089
C         -2.52966       -0.70070        4.60227
C         -1.21573       -0.45934        4.19664
C          1.73970        1.73639        0.84513
O          2.82318        1.80584        1.38181
C          1.24635        2.50873       -0.35077
C          1.58859        3.81176       -0.39358
C          0.64753        4.79706       -0.80882
S         -0.37246        5.46599        0.39971
C         -1.25337        6.41941       -0.72159
C         -0.84515        6.12346       -2.01251
C          0.43676        5.45041       -2.00934
C          1.33376        5.43365       -3.22321
N          2.62080        6.22194       -2.98021
O          3.63626        5.82004       -3.56316
O          2.56299        7.22471       -2.25385
C          0.66369        6.03894       -4.47313
C         -0.85595        5.81771       -4.50693
C         -1.54643        6.50260       -3.30418
N         -3.00295        6.02526       -3.33012
O         -3.28082        4.97239       -2.73283
O         -3.79182        6.68276       -4.02052
C         -2.23771        7.35362       -0.29170
C         -2.99822        7.14692        0.79314
C         -3.97350        8.07070        1.29240
N         -4.29084        8.18876        2.64884
C         -3.61839        7.52724        3.75339
C         -2.41949        8.31508        4.26145
C         -5.29241        9.16137        2.86381
O         -5.79599        9.54654        3.89743
C         -5.59046        9.62608        1.49687
C         -4.74055        8.90792        0.58916
C         -5.01730        9.39039       -0.77538
O         -4.47028        9.04713       -1.80313
N         -6.01177       10.36241       -0.56099
C         -6.55391       11.15505       -1.64495
C         -5.75136       12.42517       -1.88048
C         -6.32950       10.48069        0.79134
C         -7.28195       11.42311        1.29266
C         -8.35269       11.06882        2.01668
C         -9.26660       12.11730        2.51496
C         -8.88209       12.66588        3.90616
O         -7.93253       13.32398        4.28540
C        -10.53413       11.56054        3.19351
O        -11.48436       10.92328        2.78086
C        -10.18848       12.15774        4.58061
C        -11.12550       13.25644        4.95479
C        -11.02384       13.94582        6.10093
C        -11.89242       15.01793        6.64309
C        -12.69671       15.85895        5.94337
C        -13.43151       16.91474        6.55068
N        -14.04046       17.77456        7.03911
C        -12.83059       15.79371        4.52565
N        -12.93554       15.73497        3.37029
C        -11.58515       15.10609        8.10468
C        -10.45884       14.31767        8.37285
C        -10.02554       13.60297        7.17048
O         -9.08551       12.83997        7.10885
C         -9.88496       14.18691        9.62738
C        -10.46978       14.87473       10.69196
C        -11.63247       15.66286       10.46644
C        -12.18630       15.76344        9.17064
C        -12.21332       16.33494       11.55189
C        -11.66013       16.24125       12.83050
C        -10.52024       15.47176       13.04491
C         -9.92883       14.78946       11.98239
H          1.19473        0.32144        3.24444
H         -2.61678        0.93174        0.04120
H         -4.18134        0.18895        1.77680
H         -4.61140       -0.61859        4.05903
H         -2.72861       -1.06428        5.60743
H         -0.40813       -0.64330        4.90239
H          2.41529        4.16636        0.22388
H          1.67354        4.42027       -3.41474
H          1.11849        5.60038       -5.37008
H          0.84871        7.11947       -4.53379
H         -1.05871        4.73674       -4.51179
H         -1.26441        6.21016       -5.44660
H         -1.56735        7.59120       -3.43088
H         -2.34216        8.26586       -0.87603
H         -2.90199        6.22380        1.35476
H         -3.31073        6.51964        3.45767
H         -4.33657        7.41083        4.57288
H         -1.66171        8.43719        3.48070
H         -1.95495        7.79538        5.10599
H         -2.71725        9.31301        4.59920
H         -7.60168       11.39414       -1.43572
H         -6.53448       10.54893       -2.55839
H         -5.75785       13.06648       -0.99367
H         -6.17632       12.99233       -2.71410
H         -4.70672       12.19780       -2.11821
H         -7.08566       12.46822        1.06169
H         -8.56305       10.02719        2.25104
H         -9.48776       12.90826        1.78973
H        -10.05255       11.38034        5.33720
H        -11.92157       13.44257        4.24200
H         -9.01184       13.55382        9.76235
H        -13.08852       16.35319        9.04704
H        -13.10325       16.94587       11.41207
H        -12.11996       16.77261       13.66008
H        -10.08966       15.40201       14.04069
H         -9.03905       14.19180       12.17124
