100

C          0.35251        0.82519       -1.44316
C         -0.99494        0.68449       -1.47243
C         -1.64892       -0.49500       -1.01499
N         -2.17035       -1.46493       -0.64679
C         -1.83333        1.64925       -2.11115
N         -2.49246        2.41185       -2.68602
C          1.34425       -0.23949       -1.15860
C          2.51088        0.05353       -1.88641
C          3.63422       -0.75254       -1.87858
C          3.61052       -1.89410       -1.07077
C          2.45990       -2.18408       -0.27796
C          1.32587       -1.35022       -0.33214
C          2.48030       -3.30427        0.56356
C          3.60036       -4.13496        0.61734
C          4.71402       -3.86018       -0.17176
C          4.72108       -2.74527       -1.00969
C          2.40165        1.38205       -2.51934
O          3.22019        1.92673       -3.22745
C          1.12334        1.94817       -1.99129
C          1.06258        3.27723       -1.81939
C          0.16070        3.88374       -0.90619
S         -0.35626        5.50877       -1.14256
C         -1.33289        5.35255        0.27527
N         -1.20260        4.17537        0.85808
N         -0.33825        3.33935        0.18810
C         -2.16720        6.43843        0.66145
C         -3.28598        6.22088        1.36852
C         -4.16868        7.24820        1.84692
N         -4.92056        8.13736        1.05534
C         -4.90573        8.21123       -0.39951
C         -6.15621        8.81153       -1.04227
C         -5.67534        9.01615        1.86549
O         -6.41150        9.93856        1.58348
C         -5.37973        8.53994        3.21817
C         -4.43793        7.46749        3.13807
C         -4.15556        7.01883        4.51798
O         -3.42032        6.11582        4.85907
N         -4.97419        7.86572        5.29759
C         -5.12453        7.71102        6.73461
C         -4.10504        8.49484        7.54716
C         -5.69551        8.74355        4.49255
C         -6.61757        9.70525        4.99850
C         -7.91130        9.76592        4.64313
C         -8.80742       10.72642        5.19307
S         -8.31470       11.91014        6.32725
C         -9.91340       12.40808        6.65128
C        -10.03898       13.24671        7.82111
O        -10.97607       13.22093        8.61586
C        -10.81283       11.84760        5.76014
C        -10.15578       10.87347        4.92884
C        -12.23689       12.01307        5.64835
C        -13.04545       13.04320        5.93861
C        -14.51649       13.00237        6.06510
C        -15.40028       12.49090        5.17735
C        -16.80956       12.60921        5.35748
N        -17.95447       12.70126        5.51436
C        -14.97432       11.86142        3.97391
N        -14.60593       11.33006        2.99964
C        -14.81265       13.77898        7.29881
C        -13.67243       14.53843        7.61012
C        -12.62329       14.30839        6.60200
O        -11.67326       15.01506        6.34126
C        -13.51166       15.21771        8.80242
C        -14.54762       15.14378        9.73746
C        -15.74712       14.44001        9.42056
C        -15.86903       13.75182        8.19555
C        -16.78211       14.40849       10.36548
C        -16.63070       15.02078       11.61097
C        -15.43793       15.66069       11.93604
C        -14.40301       15.72515       11.00380
H          4.51146       -0.47232       -2.45521
H          0.46839       -1.57425        0.29686
H          1.62253       -3.54104        1.19082
H          3.60182       -4.99900        1.27716
H          5.58228       -4.51271       -0.13169
H          5.60519       -2.54572       -1.61202
H          1.81391        3.91552       -2.27956
H         -1.87563        7.44255        0.37141
H         -3.53991        5.20889        1.68868
H         -4.78738        7.19639       -0.79333
H         -4.03028        8.80029       -0.69258
H         -7.06014        8.28077       -0.72496
H         -6.08973        8.75367       -2.13312
H         -6.27731        9.87106       -0.79368
H         -5.01801        6.64656        6.97124
H         -6.13711        8.00509        7.03197
H         -3.07964        8.21788        7.28356
H         -4.24595        8.29106        8.61497
H         -4.21622        9.57305        7.39530
H         -6.18066       10.39986        5.70812
H         -8.32188        9.04557        3.93598
H         -9.17216       13.90478        8.02900
H        -10.67516       10.26439        4.19541
H        -12.72696       11.10551        5.29644
H        -12.56760       15.70723        9.02284
H        -16.75737       13.15510        8.01147
H        -17.71762       13.89862       10.14402
H        -17.44226       14.98683       12.33330
H        -15.31159       16.11187       12.91681
H        -13.47423       16.21991       11.28120
