118

C        -14.11898        3.80407        6.80252
C        -14.30067        4.27659        5.54856
C        -15.50462        4.93010        5.15745
N        -16.48460        5.48186        4.86686
C        -13.34320        4.04433        4.51326
N        -12.58911        3.82877        3.66039
C        -15.14436        3.67555        7.85827
C        -14.83903        2.52479        8.60802
C        -15.61424        2.08528        9.66176
C        -16.71581        2.86757       10.02533
C        -16.99204        4.08589        9.33303
C        -16.20350        4.47924        8.23759
C        -18.05184        4.89164        9.76737
C        -18.84889        4.49789       10.84220
C        -18.60064        3.29233       11.49324
C        -17.53769        2.48357       11.09141
C        -13.51335        1.99841        8.21750
O        -12.95196        1.01442        8.64595
C        -12.97332        3.04007        7.29009
C        -11.67059        3.33806        7.39222
C        -11.12467        4.59663        7.01328
S         -9.51303        4.65928        6.44297
C         -9.57531        6.35665        6.14855
C        -10.78385        6.88039        6.57987
C        -11.65525        5.87373        7.09610
C        -11.13754        8.27851        6.54083
N        -11.44781        9.40047        6.49105
C         -8.41610        6.96707        5.58533
C         -8.51532        8.03866        4.78329
C         -7.34899        8.70517        4.20944
C         -6.89796        8.21892        2.96539
C         -5.77067        8.75444        2.32674
C         -5.02970        9.75250        2.94216
C         -5.45065       10.20253        4.18538
C         -6.63259        9.74830        4.79618
N         -6.86205       10.55330        5.93688
C         -8.08279       10.67968        6.69059
C         -5.84635       11.50161        6.09181
O         -5.85682       12.45180        6.86231
C         -4.73112       11.17121        5.08513
C         -3.43388       10.61273        5.72546
C         -3.27783        9.06955        5.62860
O         -3.03617        8.42582        4.61851
N         -3.42687        8.55228        6.91394
C         -3.33206        7.15351        7.23967
C         -3.45835        9.57853        7.85748
C         -3.58913        9.48426        9.22695
C         -3.61777       10.66523        9.99508
C         -3.42713       11.90066        9.32653
C         -3.28430       11.98090        7.94062
C         -3.35202       10.80813        7.21704
C         -3.88427       10.61744       11.44880
C         -4.52105       11.67577       12.11608
C         -4.77613       11.60851       13.49657
N         -5.29146       12.81693       14.11455
O         -4.57185       13.82362       14.04796
O         -6.41812       12.76854       14.62522
C         -4.45275       10.48002       14.26095
C         -3.82714        9.42324       13.58280
C         -3.52973        9.50048       12.21886
C         -4.76999       10.32653       15.69181
C         -4.02493        9.58398       16.52570
C         -4.36243        9.38012       17.91328
C         -4.05053        8.29520       18.64127
C         -4.43152        7.96365       20.02986
C         -4.66827        8.84620       21.03196
C         -4.93195        8.43561       22.36656
N         -5.15521        8.10247       23.46471
C         -4.60794       10.25983       20.85577
N         -4.56178       11.40802       20.71426
C         -4.31594        6.47919       20.15966
C         -3.66554        5.98399       19.02197
C         -3.38433        7.06876       18.07514
O         -2.72373        6.95222       17.06360
C         -3.37456        4.64317       18.81878
C         -3.76302        3.72978       19.80217
C         -4.44635        4.19323       20.96114
C         -4.72465        5.56826       21.12519
C         -4.84046        3.26147       21.93222
C         -4.56841        1.90178       21.77123
C         -3.89860        1.45234       20.63690
C         -3.49818        2.36017       19.65644
H        -15.33500        1.18932       10.20849
H        -16.41285        5.41731        7.73069
H        -18.26719        5.83840        9.27529
H        -19.66819        5.13329       11.16907
H        -19.23223        2.98311       12.32213
H        -17.35590        1.55146       11.62258
H        -11.00410        2.64033        7.90197
H        -12.63432        6.09722        7.50697
H         -7.44543        6.52042        5.80805
H         -9.46943        8.42847        4.44282
H         -7.43043        7.40853        2.47021
H         -5.45605        8.36058        1.36370
H         -4.11793       10.12495        2.48423
H         -8.94916       10.62278        6.03196
H         -8.11856       11.65919        7.19007
H         -8.11414        9.92072        7.47517
H         -4.52426       12.10061        4.54048
H         -2.54761       11.04687        5.24746
H         -3.36944        6.54578        6.33104
H         -4.16356        6.86828        7.89005
H         -2.38050        6.96616        7.74669
H         -3.72280        8.51048        9.68256
H         -3.42259       12.83747        9.88050
H         -3.22666       12.94896        7.45147
H         -4.82831       12.56776       11.57162
H         -3.53948        8.51053       14.10332
H         -3.00514        8.65661       11.77460
H         -5.68361       10.80204       16.04510
H         -3.11642        9.09841       16.17766
H         -4.92932       10.20562       18.33507
H         -2.87127        4.32745       17.90873
H         -5.27109        5.87871       22.00986
H         -5.36423        3.58636       22.82934
H         -4.88113        1.19308       22.53423
H         -3.68835        0.39279       20.51399
H         -2.97818        1.98665       18.77637
