129

C         -1.17774        3.74549       -6.22978
C         -0.01140        3.72727       -5.52901
C          0.14816        4.44022       -4.30481
N          0.25985        5.08723       -3.34936
C          1.07024        2.88098       -5.92358
N          1.93718        2.18660       -6.25969
C         -2.39504        3.56536       -5.41629
C         -2.90051        2.29844       -5.75319
C         -3.82843        1.66090       -4.95408
C         -4.31313        2.35171       -3.82521
C         -3.90803        3.69928       -3.57643
C         -2.93646        4.30444       -4.38174
C         -4.45255        4.40134       -2.49356
C         -5.34699        3.77911       -1.62563
C         -5.69739        2.44647       -1.82532
C         -5.19226        1.74012       -2.92057
C         -2.27229        1.83243       -7.02800
O         -2.47087        0.78914       -7.60898
C         -1.38330        2.98239       -7.45812
C         -1.25114        3.30048       -8.76347
C         -1.06371        4.64287       -9.35234
C         -1.60580        5.10977      -10.51296
N         -2.31928        4.33094      -11.50051
O         -2.98817        3.36744      -11.13535
O         -2.23805        4.73812      -12.67361
C         -1.58240        6.55848      -10.59127
C         -1.01165        7.04307       -9.47949
C         -0.51275        5.88852       -8.72632
C          0.54181        6.00072       -7.89712
C          1.65542        5.06115       -7.90932
C          2.56265        5.50654       -7.02622
C          2.05157        6.71577       -6.41222
N          2.74308        7.38757       -5.34234
O          3.29807        6.65954       -4.50856
O          2.77093        8.62344       -5.34387
C          0.83798        7.06182       -6.89314
C         -0.04238        8.14561       -6.51252
C         -0.25097        8.70188       -5.30911
C         -1.05126        9.88550       -5.19117
S         -1.90944       10.16421       -3.73585
C         -2.51482       11.70308       -4.23618
C         -2.06430       11.99714       -5.52243
C         -1.22697       10.95022       -6.06901
C         -0.57850       11.10673       -7.42896
C         -0.36753       12.56821       -7.82362
C          0.84306       13.07276       -7.05575
O          1.99273       12.84484       -7.41363
O          0.50425       13.59330       -5.85170
C          1.31222       13.10446       -4.78001
C         -1.67281       13.34607       -7.67655
C         -2.29984       13.27925       -6.28458
C         -3.34278       12.40720       -3.29557
C         -3.70189       13.68995       -3.44893
C         -4.56834       14.49295       -2.60937
C         -4.54237       14.63257       -1.26157
N         -3.62888       13.94940       -0.38195
O         -2.44261       13.84971       -0.72158
O         -4.09835       13.55819        0.69602
C         -5.39119       15.70725       -0.79968
C         -5.92405       16.31826       -1.86735
C         -5.44895       15.62623       -3.06896
C         -5.76108       15.96858       -4.34131
C         -5.68256       15.06081       -5.48407
C         -6.08821       15.73063       -6.57349
C         -6.40855       17.09243       -6.18846
N         -6.75385       18.11178       -7.16760
O         -6.80247       17.73853       -8.35236
O         -6.98383       19.26531       -6.79447
C         -6.24958       17.29076       -4.85843
C         -6.35950       18.55073       -4.14375
C         -5.36550       19.01926       -3.37642
C         -5.40086       20.25697       -2.62690
C         -4.32252       21.03392       -2.43831
C         -4.08097       22.18453       -1.53842
C         -5.00522       23.02732       -1.01274
C         -4.65502       24.14464       -0.20210
N         -4.37444       25.05039        0.46841
C         -6.40560       22.88471       -1.25590
N         -7.54654       22.76371       -1.44413
C         -2.59032       22.30738       -1.41582
C         -1.99990       21.45985       -2.36340
C         -3.01125       20.71207       -3.09839
O         -2.77906       19.98222       -4.04023
C         -0.63760       21.28623       -2.52726
C          0.21186       21.98779       -1.67926
C         -0.33466       22.85678       -0.69287
C         -1.73899       23.00623       -0.56905
C          0.55279       23.54194        0.14977
C          1.93469       23.37110        0.02923
C          2.45631       22.51027       -0.93297
C          1.59757       21.82085       -1.78530
H         -4.15095        0.65082       -5.18932
H         -2.57809        5.30639       -4.15782
H         -4.17497        5.43726       -2.30581
H         -5.75675        4.33166       -0.78361
H         -6.36952        1.95508       -1.12606
H         -5.48265        0.69959       -3.05018
H         -1.57614        2.52940       -9.46518
H         -1.97625        7.13590      -11.41520
H         -0.80168        8.08778       -9.32497
H          1.75975        4.19716       -8.55067
H          3.51294        5.04854       -6.79162
H         -0.61217        8.54605       -7.33786
H          0.21296        8.30970       -4.40648
H         -1.22887       10.62422       -8.16974
H          0.39037       10.59576       -7.45361
H         -0.08309       12.61256       -8.88352
H          0.88015       13.46729       -3.84329
H          2.34263       13.45503       -4.86490
H          1.28042       12.00918       -4.75887
H         -2.39741       12.93173       -8.39154
H         -1.53116       14.39581       -7.95918
H         -3.37579       13.44525       -6.39043
H         -1.88862       14.11360       -5.70552
H         -3.68042       11.85737       -2.41888
H         -3.33932       14.26447       -4.28803
H         -5.55888       15.95548        0.23703
H         -6.64022       17.12337       -1.83246
H         -5.45542       14.00751       -5.45795
H         -6.19740       15.33268       -7.57034
H         -7.25192       19.15103       -4.30630
H         -4.45222       18.43113       -3.27244
H         -6.35072       20.45173       -2.13853
H         -0.26403       20.59759       -3.27984
H         -2.11584       23.65428        0.21637
H          0.17669       24.21912        0.91449
H          2.60883       23.91036        0.69123
H          3.53112       22.37336       -1.02091
H          2.02141       21.14791       -2.52834
