119

C          1.81841        9.74406       -4.86601
C          1.77118       10.65201       -5.86312
C          2.92792       11.39534       -6.24410
N          3.86561       12.01635       -6.53215
C          0.53872       11.01607       -6.47537
N         -0.46601       11.31830       -6.97603
C          2.98050        9.43032       -4.01052
C          2.49894        9.26894       -2.70183
C          3.30777        8.93281       -1.63612
C          4.61377        8.53173       -1.92841
C          5.07477        8.50768       -3.28056
C          4.26669        9.02409       -4.31736
C          6.30755        7.89802       -3.55718
C          7.08555        7.36100       -2.52838
C          6.66510        7.46182       -1.20506
C          5.43792        8.05084       -0.90590
C          1.02498        9.11802       -2.73520
O          0.27814        8.94375       -1.79709
C          0.69557        9.07859       -4.19869
C         -0.11490        8.17909       -4.78320
C         -0.80128        7.07663       -4.09502
C         -0.20506        5.82204       -3.90208
C          1.14194        5.34846       -4.23352
O          1.94990        6.07192       -4.79011
N          1.23615        4.02680       -3.83251
C          0.03914        3.59281       -3.30880
O         -0.27644        2.50462       -2.86463
C         -0.88509        4.72672       -3.36192
C         -2.21693        4.78252       -3.00213
C         -2.80450        6.02408       -3.17496
C         -2.12082        7.14241       -3.67608
C         -3.07974        8.25089       -3.69270
O         -2.84105        9.39359       -4.02296
N         -4.26806        7.74174       -3.26656
C         -4.19062        6.42386       -2.94727
O         -5.07448        5.68226       -2.57247
C          2.35099        3.20668       -3.93248
C          3.52773        3.60399       -4.43583
C          4.70063        2.81011       -4.50628
S          6.21376        3.66441       -4.41945
C          4.97180        1.47827       -4.68087
C          4.23803        0.25012       -4.87141
O          3.02659        0.12453       -4.90814
N          5.21034       -0.72902       -5.01712
C          4.90527       -2.12398       -5.25649
C          4.79808       -2.43457       -6.74089
C          6.50360       -0.23708       -4.98244
O          7.55458       -0.83767       -5.12665
C          6.34844        1.17636       -4.75367
C          7.18688        2.24635       -4.59856
C          8.60720        2.30140       -4.62318
C          9.29566        3.22979       -3.94264
C         10.72613        3.32019       -3.96840
C         11.38432        4.43661       -4.34038
C         12.82217        4.18902       -4.21409
C         12.94138        2.79501       -3.76030
C         11.69925        2.30623       -3.60919
C         14.10611        2.03077       -3.51706
N         15.05247        1.39452       -3.31747
C         13.79492        5.09585       -4.44729
C         15.22676        4.86246       -4.26449
C         15.88695        5.99574       -4.55950
C         14.91570        7.00810       -4.94924
C         13.67532        6.49245       -4.89311
C         12.50943        7.23062       -5.21494
N         11.55507        7.83145       -5.47057
C         17.31522        6.11488       -4.47615
C         18.06351        6.50189       -5.51707
C         19.50054        6.62719       -5.43346
C         20.26353        7.42040       -6.20037
C         21.73495        7.54971       -6.25113
C         22.61689        7.32109       -5.24364
C         24.01070        7.57545       -5.36717
N         25.15154        7.77604       -5.46986
C         22.21220        6.87643       -3.95008
N         21.88529        6.51454       -2.89691
C         22.05189        8.18736       -7.56319
C         20.86327        8.68073       -8.11606
C         19.71164        8.29294       -7.29591
O         18.56380        8.62497       -7.50783
C         20.79998        9.38347       -9.30888
C         21.98817        9.58401      -10.01592
C         23.20603        9.04677       -9.51219
C         23.22467        8.34502       -8.28780
C         24.38344        9.22840      -10.25137
C         24.37071        9.93820      -11.45322
C         23.18060       10.47536      -11.93535
C         21.99431       10.29650      -11.22369
H          2.88926        8.85003       -0.63823
H          4.60821        8.98141       -5.34925
H          6.65904        7.79727       -4.58220
H          8.02251        6.86162       -2.76280
H          7.28012        7.05935       -0.40434
H          5.11471        8.09482        0.13234
H         -0.11443        8.07942       -5.86679
H         -2.76082        3.92261       -2.62614
H         -5.11228        8.28730       -3.19631
H          2.21140        2.19877       -3.54314
H          3.64707        4.62360       -4.78694
H          3.95942       -2.36841       -4.76176
H          5.69643       -2.73829       -4.81253
H          4.00892       -1.83954       -7.21190
H          4.56490       -3.49338       -6.89089
H          5.73722       -2.21477       -7.25937
H          9.13218        1.55331       -5.21466
H          8.79920        3.98207       -3.33307
H         10.89741        5.33814       -4.67329
H         11.43232        1.31275       -3.27761
H         15.71283        3.95249       -3.95732
H         15.18433        8.01571       -5.22910
H         17.76630        5.88964       -3.51174
H         17.58468        6.71631       -6.47113
H         19.94638        5.97147       -4.69037
H         19.84418        9.74737       -9.67655
H         24.16734        7.92994       -7.94599
H         25.32818        8.82173       -9.89530
H         25.29372       10.07430      -12.01145
H         23.17473       11.03338      -12.86836
H         21.07442       10.72084      -11.62132
