103

C         -1.27781        1.07117       -3.09109
C         -2.50464        0.60571       -3.42996
C         -2.68582       -0.56703       -4.22200
N         -2.82096       -1.52144       -4.86377
C         -3.69358        1.30565       -3.07172
N         -4.65543        1.87185       -2.75477
C          0.03528        0.48111       -3.48823
C          1.00990        1.47979       -3.37663
C          2.36674        1.27007       -3.54863
C          2.79410       -0.03629       -3.77163
C          1.83631       -1.08395       -3.89691
C          0.45310       -0.80942       -3.77762
C          2.30065       -2.39508       -4.07876
C          3.66971       -2.67446       -4.09225
C          4.59798       -1.64705       -3.94844
C          4.16314       -0.33138       -3.80521
C          0.42832        2.70853       -2.84020
O          1.01044        3.76856       -2.76609
C         -0.95731        2.33286       -2.38709
C         -1.56173        2.90147       -1.32118
C         -0.87033        3.86382       -0.51769
S         -0.87473        5.53614       -0.90727
C          0.46085        5.87860        0.14626
C          0.76068        4.75068        0.89867
C         -0.12671        3.65647        0.63164
S         -0.16099        2.13655        1.54722
C          0.88304        2.51447        2.88354
O          0.66572        2.39406        4.06570
C          2.19628        2.89281        2.23136
O          3.08851        2.13681        1.91141
S          2.11415        4.62173        2.03879
C          1.02791        7.18029        0.10491
N          2.01018        7.61172       -0.79699
C          2.73579        6.82865       -1.77192
C          2.07200        6.80019       -3.13644
C          2.30221        8.97718       -0.63107
O          3.07568        9.69544       -1.22989
C          1.43643        9.35111        0.48673
C          0.67949        8.19986        0.90312
C         -0.16186        8.64008        2.04145
O         -0.93862        7.95979        2.68001
N          0.19185       10.00523        2.19557
C         -0.35948       10.86520        3.22785
C          0.49575       10.87478        4.48550
C          1.14209       10.39372        1.25854
C          1.73874       11.69677        1.18293
C          1.70755       12.44183        0.06704
C          2.43258       13.65875       -0.04450
S          1.84145       14.89207       -1.06409
C          3.23760       15.87814       -0.85005
C          3.36487       17.03050       -1.72816
O          4.40991       17.45318       -2.20472
O          2.16701       17.61618       -2.01005
C          4.09542       15.33991        0.10303
C          3.63662       14.03976        0.51652
C          5.35256       15.84849        0.60618
C          5.77432       17.10667        0.82066
C          7.14031       17.58693        1.13029
C          7.98682       17.10487        2.06994
C          9.23673       17.72055        2.36459
N         10.25786       18.22252        2.60079
C          7.64024       15.98199        2.87692
N          7.34654       15.06156        3.51759
C          7.31294       18.82473        0.31985
C          6.04067       19.22953       -0.11301
C          5.01287       18.32708        0.43106
O          3.83063       18.54914        0.58420
C          5.83575       20.20964       -1.06498
C          6.96103       20.83989       -1.60369
C          8.26116       20.52056       -1.11342
C          8.42863       19.50131       -0.15136
C          9.36805       21.20226       -1.64080
C          9.20960       22.13817       -2.66512
C          7.94494       22.39843       -3.18500
C          6.82598       21.75881       -2.65269
H          3.06650        2.09085       -3.41526
H         -0.24821       -1.63720       -3.83144
H          1.59975       -3.22059       -4.18122
H          4.01243       -3.70069       -4.20036
H          5.66192       -1.87008       -3.93559
H          4.90416        0.45654       -3.68248
H         -2.47794        2.49333       -0.90511
H          2.91578        5.82239       -1.38358
H          3.72063        7.29834       -1.89806
H          1.13509        6.24267       -3.11130
H          2.73475        6.31921       -3.86340
H          1.84310        7.80814       -3.49646
H         -1.36520       10.51118        3.47924
H         -0.46292       11.88284        2.83307
H          0.53845        9.87843        4.93624
H          0.08033       11.56846        5.22346
H          1.52286       11.18667        4.27030
H          2.27002       12.03266        2.06866
H          1.14619       12.10336       -0.80286
H          1.44481       17.19492       -1.50343
H          4.19889       13.38860        1.17757
H          6.06723       15.05407        0.82432
H          4.83265       20.40363       -1.43488
H          9.43493       19.22101        0.14451
H         10.37052       21.00225       -1.26744
H         10.07792       22.65271       -3.06898
H          7.82695       23.10001       -4.00687
H          5.84686       21.96765       -3.07980
