101

C          1.68372        0.35117       -0.69411
C          1.34355       -0.85754       -0.19310
C          2.20758       -1.98141       -0.31024
N          2.92294       -2.89163       -0.41401
C          0.07362       -1.09463        0.40517
N         -0.96055       -1.26738        0.90426
C          2.92083        0.70999       -1.43834
C          2.61884        1.79456       -2.27555
C          3.55543        2.47440       -3.03052
C          4.88965        2.09071       -2.89753
C          5.23865        1.00514       -2.03822
C          4.24007        0.30284       -1.32609
C          6.59421        0.68605       -1.87921
C          7.58429        1.42176       -2.53545
C          7.23578        2.47636       -3.37480
C          5.89472        2.80540       -3.56110
C          1.23671        2.23121       -2.05241
O          0.59918        2.98581       -2.75355
C          0.82921        1.54815       -0.78087
C          0.12472        2.11972        0.21116
C         -0.27075        3.49203        0.20906
S         -1.69925        3.97177        1.02639
C         -1.46737        5.64769        0.67380
C         -0.27860        5.83194       -0.01154
C          0.38757        4.60551       -0.28175
C          0.27222        7.10278       -0.37871
N          0.72727        8.12889       -0.67766
C         -2.44033        6.56724        1.16178
C         -2.73327        7.70995        0.52268
C         -3.66660        8.64180        1.05109
S         -4.59178        9.61608       -0.04718
C         -4.01272        8.98666        2.33147
C         -3.62735        8.61186        3.67209
O         -2.76889        7.80799        3.99486
N         -4.44635        9.35704        4.49894
C         -4.39103        9.28315        5.94303
C         -3.39804       10.27957        6.51827
C         -5.31066       10.19163        3.81477
O         -6.15874       10.93446        4.27613
C         -5.02054        9.96777        2.41742
C         -5.47142       10.43648        1.20779
C         -6.45136       11.40810        0.86646
C         -6.71998       12.46729        1.65760
C         -7.77251       13.27518        1.03726
C         -8.08433       12.59797       -0.22949
C         -7.30364       11.50598       -0.31180
C         -9.04118       12.94839       -1.21035
N         -9.82456       13.23183       -2.01643
C         -8.30430       14.39701        1.56930
C         -9.31362       15.25226        0.93843
C         -9.59716       16.27299        1.77314
C         -8.78342       16.12257        2.96556
C         -8.01558       15.02616        2.86740
C         -7.12308       14.63302        3.88949
N         -6.37080       14.36223        4.73426
C        -10.52414       17.33265        1.46046
C        -11.62405       17.66450        2.15577
C        -12.67508       18.65947        1.84011
C        -12.51706       19.82938        1.17297
C        -13.56608       20.77922        1.02012
N        -14.42008       21.55471        0.89322
C        -11.26367       20.23879        0.62983
N        -10.24299       20.56571        0.18618
C        -13.90320       18.21750        2.56760
C        -13.54275       17.20518        3.46566
C        -12.11955       16.87725        3.33713
O        -11.51523       16.12072        4.06728
C        -14.43623       16.56825        4.31210
C        -15.77887       16.94785        4.25749
C        -16.18886       17.95849        3.34339
C        -15.24256       18.58038        2.49652
C        -17.54485       18.31770        3.30078
C        -18.47700       17.69955        4.13759
C        -18.07015       16.70957        5.02719
C        -16.72865       16.33413        5.08646
H          3.25704        3.32920       -3.63121
H          4.53101       -0.49217       -0.64498
H          6.89805       -0.12670       -1.22252
H          8.63234        1.17534       -2.38373
H          8.00914        3.05172       -3.87790
H          5.64446        3.64191       -4.21134
H         -0.03788        1.58662        1.14571
H          1.33582        4.56294       -0.80484
H         -2.95544        6.29517        2.07968
H         -2.28473        7.95086       -0.43818
H         -4.09922        8.26792        6.23309
H         -5.38885        9.48367        6.34732
H         -2.39107       10.10464        6.12518
H         -3.36053       10.19158        7.60840
H         -3.68148       11.30666        6.26613
H         -6.21668       12.68648        2.58255
H         -7.29951       10.78374       -1.11691
H         -9.76229       15.11897       -0.03183
H         -8.82487       16.79809        3.80814
H        -10.26691       17.84380        0.53612
H        -14.08771       15.78551        4.98062
H        -15.59737       19.32485        1.79067
H        -17.89156       19.08877        2.61520
H        -19.52324       17.99244        4.09423
H        -18.79726       16.22801        5.67643
H        -16.43174       15.55567        5.78680
