112

C          2.60252        2.19922       -1.96122
C          2.05765        2.42270       -3.17604
C          2.82669        2.93067       -4.25536
N          3.45722        3.37313       -5.12587
C          0.69987        2.09221       -3.44500
N         -0.40551        1.81204       -3.66477
C          4.02849        2.26403       -1.59056
C          4.25338        1.27425       -0.62196
C          5.48129        1.09514       -0.01419
C          6.47737        2.05068       -0.26748
C          6.21186        3.15120       -1.13788
C          5.00005        3.21766       -1.84545
C          7.14675        4.19282       -1.22743
C          8.34123        4.14045       -0.50880
C          8.63386        3.02953        0.27733
C          7.70979        1.98991        0.39493
C          2.94677        0.72934       -0.15863
O          2.75905       -0.16162        0.63978
C          1.93350        1.64864       -0.79280
C          0.94448        2.15348       -0.02769
C          0.21898        3.45877       -0.13730
C         -1.09815        3.63477        0.35143
C         -1.78355        4.91513        0.30523
N         -3.05217        5.03650        0.74129
C         -3.64980        3.93276        1.23626
C         -2.99323        2.72489        1.32237
N         -1.72381        2.56233        0.88090
F         -3.61291        1.66266        1.85510
F         -4.92538        4.04009        1.63308
C         -1.17288        6.07328       -0.19158
C          0.15434        5.95965       -0.65729
C          0.87116        4.64248       -0.61030
N          2.14188        4.77062       -1.02607
S          2.39036        6.33291       -1.49026
N          0.89922        6.95350       -1.17213
C         -1.77640        7.39929       -0.18447
N         -2.52733        7.94358       -1.22686
C         -2.93760        7.30484       -2.45336
C         -4.31228        6.66981       -2.31242
C         -3.04799        9.20315       -0.88581
O         -3.77677        9.92360       -1.53743
C         -2.53472        9.41235        0.47159
C         -1.74084        8.27156        0.83104
C         -1.26174        8.48273        2.20903
O         -0.53888        7.74086        2.84349
N         -1.88680        9.69938        2.57671
C         -1.85070       10.20117        3.93878
C         -0.81298       11.28633        4.16582
C         -2.61353       10.24434        1.50982
C         -3.41687       11.43689        1.58915
C         -3.64207       12.26694        0.55363
C         -4.49098       13.47448        0.58237
C         -4.59067       14.36506        1.67230
C         -5.36839       15.58054        1.60217
N         -5.43895       16.41487        2.66213
C         -4.75661       16.06928        3.77425
C         -3.99366       14.92455        3.83622
N         -3.90182       14.07387        2.79611
F         -3.30732       14.62278        4.94763
F         -4.83750       16.87809        4.83827
C         -6.04505       15.96004        0.43500
C         -5.98043       15.09462       -0.68987
C         -5.18694       13.82424       -0.61339
N         -5.21576       13.13655       -1.76964
S         -6.16881       13.97911       -2.82568
N         -6.54997       15.29566       -1.89201
C         -6.72603       17.25524        0.28281
C         -8.04823       17.46260        0.36414
C         -8.81339       18.68133        0.04881
C         -8.43742       19.96607        0.28045
C         -9.28991       21.07402        0.02261
N         -9.98342       21.98329       -0.19578
C         -7.16595       20.30236        0.85221
N         -6.13345       20.57544        1.29835
C        -10.15723       18.21698       -0.40164
C        -10.28845       16.86150       -0.06361
C         -9.04266       16.35385        0.53678
O         -8.87585       15.26464        1.04470
C        -11.41300       16.10788       -0.35707
C        -12.46350       16.73010       -1.04125
C        -12.35608       18.10155       -1.40922
C        -11.19123       18.83308       -1.09350
C        -13.42166       18.70607       -2.09438
C        -14.57016       17.97987       -2.41495
C        -14.66570       16.63580       -2.06661
C        -13.61842       16.01375       -1.38617
H          5.61707        0.31077        0.72446
H          4.79137        4.06713       -2.48998
H          6.93808        5.07548       -1.82923
H          9.04285        4.96957       -0.56040
H          9.57366        2.98226        0.82164
H          7.94992        1.14517        1.03723
H          0.69547        1.60718        0.88758
H         -2.18771        6.57539       -2.77051
H         -2.99310        8.07826       -3.22983
H         -4.30794        5.88530       -1.55150
H         -4.63006        6.23001       -3.26145
H         -5.06243        7.41096       -2.01365
H         -1.62893        9.36154        4.60838
H         -2.84626       10.56211        4.21724
H          0.19651       10.91531        3.96334
H         -0.84714       11.62208        5.20845
H         -0.99260       12.15482        3.52534
H         -3.87931       11.63194        2.55137
H         -3.19529       12.06013       -0.41856
H         -6.03715       18.05247        0.01857
H        -11.45063       15.05767       -0.08193
H        -11.12117       19.86378       -1.42687
H        -13.37096       19.75463       -2.38278
H        -15.39082       18.46473       -2.93824
H        -15.55754       16.06964       -2.32360
H        -13.71281       14.96042       -1.12936
