112

C          2.14181        2.22077       -4.25780
C          2.18426        2.17597       -5.60694
C          2.98136        1.21911       -6.29660
N          3.64675        0.44292       -6.84419
C          1.52338        3.14977       -6.41081
N          0.96648        3.94130       -7.05039
C          2.87933        1.35011       -3.30720
C          3.14969        2.10436       -2.15703
C          3.75504        1.59236       -1.02527
C          4.01179        0.22074       -0.99783
C          3.67456       -0.59252       -2.12218
C          3.13911       -0.01038       -3.29312
C          3.83573       -1.98133       -2.01680
C          4.32518       -2.55830       -0.84212
C          4.68716       -1.75577        0.23619
C          4.53605       -0.37258        0.15770
C          2.47419        3.40657       -2.24436
O          2.63039        4.34552       -1.49499
C          1.54880        3.27491       -3.42177
C          0.29788        3.75813       -3.50339
C         -0.36182        4.42853       -2.43147
S         -1.55911        5.60780       -2.77193
C         -1.89917        5.89011       -1.10277
C         -1.14128        5.05184       -0.30787
C         -0.27912        4.21884       -1.06749
C         -1.22923        4.98727        1.11940
N         -1.31264        4.96006        2.27912
C         -2.88290        6.86465       -0.78099
C         -2.79587        7.63349        0.31777
C         -3.75216        8.64872        0.64661
N         -4.11062        8.99685        1.95299
C         -3.63638        8.39466        3.18629
C         -4.44153        7.17229        3.59687
C         -5.07045       10.03154        1.96450
O         -5.63021       10.56812        2.89883
C         -5.24601       10.32611        0.53405
C         -4.39614        9.44526       -0.21301
C         -4.56163        9.76112       -1.64461
O         -3.99359        9.24962       -2.58658
N         -5.53047       10.78235       -1.62613
C         -5.96916       11.44327       -2.83809
C         -5.15936       12.69260       -3.14740
C         -5.90154       11.10962       -0.32289
C         -6.84957       12.13007       -0.00334
C         -6.53993       13.18130        0.76853
C         -7.47578       14.21668        1.09864
C         -7.29603       15.50492        0.74636
C         -8.43810       16.28533        1.23107
C         -9.29218       15.32234        1.94542
C         -8.71612       14.11182        1.84611
C        -10.48574       15.55807        2.66382
N        -11.46517       15.74379        3.25821
C         -8.62683       17.60544        1.01879
C         -9.78243       18.38957        1.45888
C         -9.63972       19.65447        1.01510
C         -8.37201       19.74765        0.30874
C         -7.76456       18.55062        0.29479
C         -6.51270       18.32900       -0.32205
N         -5.47891       18.15766       -0.82173
C        -10.60677       20.69358        1.26918
C        -11.21677       21.45971        0.35131
C        -12.13252       22.60478        0.54232
C        -13.03957       22.76804        1.53663
C        -13.96657       23.84915        1.56670
N        -14.71454       24.73451        1.58564
C        -13.19269       21.82311        2.59341
N        -13.30809       21.05312        3.45375
C        -12.02369       23.43362       -0.69292
C        -11.35816       22.67950       -1.66871
C        -10.91916       21.39179       -1.12012
O        -10.41795       20.49299       -1.76179
C        -11.09572       23.13591       -2.94909
C        -11.50526       24.42866       -3.28047
C        -12.16074       25.23523       -2.30713
C        -12.40597       24.72993       -1.01093
C        -12.55469       26.53371       -2.66228
C        -12.31562       27.02731       -3.94682
C        -11.67311       26.23443       -4.89340
C        -11.26674       24.94271       -4.56185
H          3.92575        2.22891       -0.16138
H          2.86039       -0.64488       -4.13045
H          3.55475       -2.63528       -2.83994
H          4.41885       -3.63901       -0.76692
H          5.07262       -2.20740        1.14703
H          4.80792        0.23481        1.01920
H         -0.32429        3.52392       -4.36508
H          0.37679        3.48984       -0.60760
H         -3.70205        6.99330       -1.48643
H         -1.96009        7.54217        1.00399
H         -3.72295        9.14421        3.98262
H         -2.57323        8.14936        3.10072
H         -5.50790        7.40779        3.67613
H         -4.10221        6.80725        4.57231
H         -4.32768        6.36060        2.87217
H         -7.03433       11.68179       -2.75740
H         -5.85812       10.73964       -3.67171
H         -5.29324       13.45409       -2.37281
H         -5.47767       13.12166       -4.10289
H         -4.08992       12.46669       -3.21364
H         -7.84234       12.02552       -0.43281
H         -5.53228       13.30741        1.16268
H         -6.44881       15.85502        0.18173
H         -9.07294       13.18836        2.28049
H        -10.63580       18.03920        2.01600
H         -8.00058       20.65291       -0.14951
H        -10.78952       20.84023        2.33100
H        -10.56998       22.50017       -3.65645
H        -12.87933       25.38150       -0.28245
H        -13.06022       27.17539       -1.94293
H        -12.63435       28.03304       -4.20915
H        -11.48816       26.62031       -5.89279
H        -10.76323       24.34011       -5.31537
