120

C          2.89588        0.75510        2.31220
C          4.16987        0.55574        2.71582
C          4.60751       -0.70434        3.21239
N          4.94658       -1.72733        3.62925
C          5.10544        1.63136        2.77141
N          5.85177        2.51271        2.80438
C          1.77606       -0.22384        2.33480
C          0.59349        0.50702        2.51628
C         -0.66500       -0.02801        2.32619
C         -0.74910       -1.34933        1.88644
C          0.42965       -2.14493        1.77774
C          1.70106       -1.57107        2.01292
C          0.29487       -3.48136        1.37100
C         -0.95409       -4.00225        1.01820
C         -2.08605       -3.19311        1.04888
C         -1.98524       -1.87542        1.48863
C          0.89925        1.94963        2.58737
O          0.21821        2.84116        3.04624
C          2.26057        2.04404        1.98437
C          2.64152        2.92664        1.04611
C          1.82561        3.97338        0.51042
S          2.62852        5.43099       -0.01477
C          1.17515        6.19805       -0.54347
C          0.11082        5.38894       -0.24959
C          0.48150        4.10985        0.22972
C         -0.70626        3.27592        0.27041
O         -0.73605        2.05747        0.32409
C         -1.92927        4.16493        0.05272
C         -1.33152        5.49254       -0.38621
O         -1.97513        6.45967       -0.76369
C          1.23528        7.47098       -1.16157
C          0.33068        7.81538       -2.08799
C          0.25033        9.10519       -2.68644
N          0.06225       10.30175       -1.98748
C         -0.05847       10.40342       -0.53954
C         -0.87766       11.58524       -0.04523
C          0.07314       11.40171       -2.86897
O          0.00439       12.59580       -2.66126
C          0.18830       10.75734       -4.18478
C          0.30037        9.34926       -3.99360
C          0.45044        8.71021       -5.30799
O          0.60847        7.52381       -5.50862
N          0.36732        9.80610       -6.19507
C          0.51327        9.72120       -7.64110
C          0.03924        8.41425       -8.25618
C          0.24062       11.00448       -5.48917
C          0.18970       12.28886       -6.10499
C         -0.83890       13.12803       -5.92633
C         -0.90882       14.43012       -6.52477
C         -1.94976       15.26907       -6.34679
C         -1.67437       16.50432       -7.07896
C         -0.37059       16.30335       -7.72667
C          0.06342       15.08180       -7.38804
C          0.35476       17.14980       -8.59442
N          0.96983       17.81399       -9.32092
C         -2.46850       17.59179       -7.10105
C         -2.13179       18.83827       -7.76656
C         -3.10264       19.73933       -7.52211
C         -4.14353       19.08078       -6.75147
C         -3.77906       17.81497       -6.48244
C         -4.58517       16.90726       -5.76065
N         -5.25727       16.16738       -5.16977
C         -3.09770       21.07761       -8.04754
C         -1.96332       21.76419       -8.25098
C         -1.93590       23.08564       -8.82076
C         -0.84374       23.82697       -9.05741
C         -0.76835       25.20932       -9.57295
C         -1.64623       25.81476      -10.41220
C         -1.43889       27.12312      -10.92484
N         -1.27823       28.19351      -11.33800
C         -2.82474       25.17360      -10.89915
N         -3.79141       24.66374      -11.28988
C          0.55489       25.74596       -9.14006
C          1.32747       24.68379       -8.65390
C          0.55092       23.44085       -8.64154
O          0.98887       22.35689       -8.31885
C          2.62133       24.82367       -8.17747
C          3.17905       26.10370       -8.16133
C          2.41274       27.21213       -8.61897
C          1.09967       27.02184       -9.10152
C          2.98284       28.49243       -8.57558
C          4.28051       28.68117       -8.09670
C          5.02752       27.59371       -7.65287
C          4.48035       26.31138       -7.68333
H         -1.53784        0.61635        2.37431
H          2.59526       -2.16216        1.83462
H          1.16587       -4.13011        1.30721
H         -1.04044       -5.03796        0.69925
H         -3.04874       -3.58539        0.73064
H         -2.87670       -1.25060        1.48755
H          3.62243        2.81547        0.58515
H         -2.47891        4.29949        0.98760
H         -2.55385        3.75557       -0.74317
H          2.02494        8.16147       -0.87675
H         -0.41150        7.11144       -2.45945
H          0.95361       10.45045       -0.12405
H         -0.54094        9.49367       -0.16355
H         -0.39053       12.53589       -0.27840
H         -0.98860       11.53937        1.04229
H         -1.87542       11.58765       -0.49563
H          1.56943        9.88821       -7.87841
H         -0.06637       10.53231       -8.09862
H          0.62268        7.56345       -7.89506
H          0.15517        8.44218       -9.34357
H         -1.01515        8.23322       -8.02395
H          1.04369       12.55139       -6.72042
H         -1.67928       12.83697       -5.29626
H         -2.81075       15.04987       -5.73757
H          0.98998       14.63326       -7.70964
H         -1.25055       19.04410       -8.35008
H         -5.06170       19.56384       -6.45078
H         -4.06708       21.51001       -8.28166
H         -1.01228       21.30850       -7.98506
H         -2.92538       23.47531       -9.03832
H          3.16238       23.95570       -7.81005
H          0.53579       27.89437       -9.41477
H          2.42096       29.35977       -8.91717
H          4.70837       29.68026       -8.07130
H          6.03800       27.74303       -7.28081
H          5.07960       25.47523       -7.32811
