112

C         -5.26071        8.02151      -11.77787
C         -5.62579        9.14824      -12.43086
C         -6.26049        9.11758      -13.70678
N         -6.75278        9.09563      -14.75754
C         -5.32209       10.44342      -11.91968
N         -5.06815       11.48299      -11.47284
C         -5.49336        6.61695      -12.23699
C         -4.56569        5.79317      -11.58813
C         -4.54974        4.41478      -11.68119
C         -5.60339        3.80285      -12.35158
C         -6.60354        4.59418      -12.98813
C         -6.50930        6.01042      -12.96973
C         -7.71083        3.93171      -13.54521
C         -7.84599        2.54226      -13.43883
C         -6.85455        1.78377      -12.82327
C         -5.72588        2.40988      -12.30377
C         -3.80938        6.55032      -10.58814
O         -2.92712        6.11065       -9.88010
C         -4.43419        7.91489      -10.55174
C         -4.39891        8.67966       -9.44216
C         -3.84902        8.27656       -8.14918
C         -4.30785        7.25114       -7.38005
N         -5.43604        6.40553       -7.70482
O         -5.42476        5.25457       -7.24649
O         -6.35580        6.88001       -8.38737
C         -3.53647        7.07065       -6.17945
C         -2.55974        7.98501       -6.16648
C         -2.65858        8.80157       -7.38460
C         -1.78972        9.78223       -7.72963
C         -1.87342       10.57787       -8.95876
C         -0.77427       11.34277       -9.04144
C          0.03677       11.10346       -7.87154
N          1.32105       11.73851       -7.66021
O          1.69475       11.97150       -6.50399
O          1.96615       12.02719       -8.67816
C         -0.53470       10.21711       -7.02660
C          0.05934        9.78454       -5.77916
C         -0.49599        9.96947       -4.57089
C          0.10690        9.59267       -3.28502
C          0.88929        8.49370       -3.23331
C         -0.16144       10.29372       -2.04275
S         -1.21508       11.66358       -1.99999
C         -1.06999       11.87911       -0.31043
C         -1.83311       12.99398        0.32866
C         -0.19981       10.95660        0.23451
C          0.31067       10.06127       -0.75795
C          0.21102       10.85898        1.60323
C         -0.52390       11.16131        2.68421
C         -0.05922       11.00725        4.06524
C         -0.53610       11.89358        5.03616
C         -0.14946       11.72999        6.37332
N         -0.64799       12.69510        7.33568
O         -1.87641       12.84327        7.39660
O          0.19019       13.35135        7.96992
C          0.70027       10.69071        6.76763
C          1.16355        9.80572        5.78641
C          0.78501        9.95931        4.45211
C          1.13735       10.42508        8.13437
C          0.41280        9.68147        8.98194
C          0.95033        9.31959       10.27178
C          0.37901        9.55811       11.45959
C          0.95918        9.40538       12.81231
C          1.81321        8.43761       13.21010
C          2.26872        8.32489       14.55935
N          2.65612        8.24398       15.64870
C          2.29657        7.41653       12.32939
N          2.68934        6.59543       11.61086
C          0.28336       10.42993       13.66272
C         -0.81340       10.93921       12.94948
C         -0.88558       10.34841       11.60764
O         -1.79108       10.48879       10.81369
C         -1.65578       11.92743       13.42926
C         -1.39218       12.45849       14.69248
C         -0.28578       11.97488       15.44760
C          0.55120       10.96272       14.91831
C         -0.04717       12.53088       16.71489
C         -0.87204       13.53786       17.22434
C         -1.94411       14.01220       16.47410
C         -2.20233       13.47613       15.21395
H         -3.81081        3.84156      -11.12864
H         -7.30106        6.59282      -13.43440
H         -8.51212        4.49430      -14.02029
H         -8.73900        2.05094      -13.81785
H         -6.96865        0.70739      -12.72151
H         -4.96976        1.80446      -11.80715
H         -4.94902        9.61627       -9.38695
H         -3.72127        6.31725       -5.42873
H         -1.84192        8.05250       -5.37247
H         -2.66447       10.58080       -9.68810
H         -0.52956       12.04631       -9.82270
H          1.05952        9.36171       -5.86074
H         -1.47582       10.44160       -4.51214
H          1.09865        7.88857       -4.10977
H          1.36447        8.13607       -2.32769
H         -2.38367       13.59652       -0.40122
H         -1.15641       13.66358        0.86908
H         -2.57464       12.59801        1.02915
H          0.99852        9.26018       -0.51763
H          1.21658       10.46729        1.75066
H         -1.53820       11.53032        2.58549
H         -1.19737       12.71217        4.75606
H          1.81681        8.97664        6.05517
H          1.14743        9.23412        3.72665
H          2.11375       10.82071        8.40341
H         -0.57380        9.30129        8.71871
H          1.95040        8.89798       10.21063
H         -2.47715       12.28611       12.81460
H          1.40725       10.64297       15.50518
H          0.78576       12.18373       17.32326
H         -0.67575       13.95450       18.20932
H         -2.58106       14.80029       16.86802
H         -3.04208       13.86363       14.63967
