116

C          1.85302        1.57694        1.17136
C          2.11542        0.29037        0.84971
C          2.84235       -0.56875        1.71511
N          3.44309       -1.26295        2.43161
C          1.75137       -0.25630       -0.41873
N          1.43235       -0.68522       -1.44598
C          2.26357        2.31433        2.40038
C          2.27615        3.68478        2.09511
C          2.50709        4.67984        3.02750
C          2.70368        4.29484        4.35531
C          2.70376        2.91158        4.70386
C          2.48936        1.92418        3.71301
C          2.88762        2.56046        6.05017
C          3.04933        3.54166        7.03228
C          3.03341        4.88974        6.68610
C          2.86591        5.26477        5.35427
C          1.85157        3.90033        0.70445
O          2.01500        4.90509        0.04736
C          1.24683        2.59179        0.29131
C          0.13113        2.47279       -0.44988
C         -0.59856        3.60846       -0.89436
S         -1.82628        4.25884        0.11958
C         -2.11904        5.58306       -0.93525
C         -1.37007        5.46259       -2.09246
C         -0.51788        4.31323       -2.07730
C         -1.41743        6.39815       -3.17924
N         -1.42124        7.12679       -4.08220
C         -3.06035        6.57691       -0.55248
C         -2.68209        7.60358        0.22588
C         -3.56837        8.66779        0.60098
N         -3.87980        8.99168        1.92435
C         -3.44632        8.27311        3.10637
C         -2.16014        8.82320        3.70020
C         -4.78982       10.06958        1.99275
O         -5.29317       10.60326        2.95890
C         -5.01901       10.38722        0.57099
C         -4.23190        9.48690       -0.22002
C         -4.47391        9.79838       -1.63906
O         -3.96137        9.26150       -2.59813
N         -5.43298       10.83076       -1.57682
C         -5.94911       11.49752       -2.76205
C         -6.69864       10.55881       -3.69766
C         -5.70984       11.17253       -0.25451
C         -6.65390       12.17447        0.11380
C         -6.36321       13.21602        0.90574
C         -7.35781       14.16003        1.33374
C         -8.64179       13.83039        1.58444
C         -9.33832       15.00796        2.08313
C         -8.32960       16.07798        2.11648
C         -7.16784       15.55507        1.68997
C         -8.47401       17.43643        2.48102
N         -8.57312       18.55872        2.75821
C        -10.63510       15.02964        2.44722
C        -11.31317       16.18997        2.99709
C        -12.57969       15.84893        3.30383
C        -12.78630       14.46718        2.90590
C        -11.64466       13.96185        2.40952
C        -11.52495       12.63670        1.93433
N        -11.43880       11.54634        1.54503
C        -13.54719       16.76502        3.84456
C        -13.20172       17.77857        4.65194
C        -14.14843       18.73239        5.16752
C        -13.87219       19.76916        5.97335
C        -14.81060       20.73704        6.57960
C        -15.99335       21.15958        6.06331
C        -16.78768       22.16155        6.68219
N        -17.44507       22.97441        7.19030
C        -16.51196       20.67903        4.82537
N        -16.93670       20.27979        3.82085
C        -14.11318       21.30165        7.77021
C        -12.76471       20.92761        7.71681
C        -12.52034       20.02983        6.58334
O        -11.43236       19.59173        6.27244
C        -11.81997       21.29902        8.66019
C        -12.24461       22.07319        9.74176
C        -13.61456       22.44498        9.84672
C        -14.54149       22.05023        8.85865
C        -14.02661       23.20421       10.95063
C        -13.11209       23.59560       11.93026
C        -11.77276       23.23271       11.82217
C        -11.33991       22.47417       10.73480
H          2.47149        5.72386        2.72958
H          2.44996        0.87971        4.01056
H          2.89758        1.51506        6.35322
H          3.18275        3.25224        8.07194
H          3.14962        5.65159        7.45323
H          2.84988        6.32445        5.10584
H         -0.36483        1.51375       -0.56830
H          0.15806        4.04931       -2.88314
H         -4.07738        6.48826       -0.92729
H         -1.66089        7.68103        0.59360
H         -3.33354        7.21154        2.86299
H         -4.23712        8.34476        3.86294
H         -1.37535        8.92505        2.94479
H         -1.79483        8.15349        4.48613
H         -2.32582        9.80784        4.14987
H         -5.09825       11.93756       -3.29392
H         -6.61734       12.31765       -2.47957
H         -6.06230        9.73933       -4.04434
H         -7.04676       11.10379       -4.58141
H         -7.56973       10.12068       -3.20036
H         -7.65729       12.03250       -0.28160
H         -5.35310       13.37639        1.27606
H         -9.04785       12.84103        1.47001
H         -6.22725       16.07609        1.59219
H        -10.89185       17.16878        3.15272
H        -13.72520       13.94554        3.01622
H        -14.58320       16.59876        3.56094
H        -12.15729       17.90097        4.92936
H        -15.16963       18.52929        4.85929
H        -10.79016       20.96760        8.55858
H        -15.58107       22.32889        8.98634
H        -15.06751       23.50240       11.05866
H        -13.44835       24.18565       12.77909
H        -11.06269       23.53955       12.58622
H        -10.28932       22.19844       10.67124
