125

C          7.18434        6.42325       -3.44655
C          6.89441        7.50291       -4.20299
C          7.82157        8.56353       -4.39948
N          8.57163        9.44737       -4.50404
C          5.68372        7.55385       -4.95782
N          4.72702        7.55691       -5.60946
C          8.54111        6.01955       -3.00849
C          8.60150        4.61670       -3.05732
C          9.74333        3.90764       -2.72687
C         10.83233        4.62346       -2.20285
C         10.72624        6.03136       -2.00099
C          9.59177        6.73102       -2.45285
C         11.74789        6.70031       -1.31055
C         12.88790        6.01808       -0.88449
C         13.03293        4.66256       -1.16400
C         12.00898        3.96719       -1.81080
C          7.23605        4.06415       -3.26551
O          6.91267        2.89981       -3.36037
C          6.32808        5.26503       -3.18371
C          5.17623        5.15328       -2.48864
C          4.43877        6.20886       -1.79455
C          4.87361        6.99558       -0.76705
N          6.09630        6.83276       -0.00507
O          7.05663        6.25498       -0.51369
O          6.10376        7.30940        1.13829
C          3.88937        7.96731       -0.35530
C          2.77366        7.76707       -1.05981
C          2.98756        6.61908       -1.94908
C          1.96570        6.01762       -2.60405
C          2.01169        4.69102       -3.21948
C          0.75545        4.33940       -3.54320
C         -0.12733        5.43922       -3.23031
N         -1.53073        5.46074       -3.58140
O         -2.31793        6.05537       -2.83116
O         -1.86246        4.82824       -4.59282
C          0.54392        6.48962       -2.71166
C         -0.02311        7.80706       -2.50738
C          0.45468        8.90635       -3.11000
C         -0.19877       10.17962       -3.06346
N         -0.54930       10.88897       -1.91479
C         -0.18870       10.58185       -0.54612
C          1.13728       11.21150       -0.14166
C         -1.19189       12.10855       -2.23808
O         -1.59695       12.97641       -1.49281
C         -1.21687       12.08400       -3.71415
C         -0.57757       10.87154       -4.13962
C         -0.56393       10.84157       -5.61035
O         -0.07882        9.98414       -6.31872
N         -1.19145       12.05621       -5.94580
C         -1.29193       12.51793       -7.31666
C         -2.52563       11.98539       -8.02536
C         -1.57570       12.76260       -4.80449
C         -2.17257       14.05966       -4.82954
C         -3.40307       14.33218       -5.28700
C         -3.90250       15.66413       -5.28299
S         -5.05665       16.11084       -6.49516
C         -5.21986       17.68995       -5.86005
C         -4.19060       17.95538       -4.97942
C         -3.72065       16.73049       -4.41276
C         -3.18752       16.71781       -3.05401
O         -2.65670       15.76169       -2.51060
C         -3.44513       17.95831       -2.27087
C         -3.53475       17.88199       -0.87691
C         -3.82927       19.02957       -0.13828
C         -3.97408       20.26247       -0.77859
C         -3.88301       20.34691       -2.16667
C         -3.67436       19.18440       -2.91328
C         -3.88072       19.23878       -4.37895
O         -3.85038       20.29386       -4.99788
C         -6.41307       18.43391       -6.06012
C         -6.62125       19.32690       -7.02811
C         -7.71356       20.31506       -7.11801
C         -9.02194       20.11497       -6.82770
C        -10.02377       21.09441       -7.06397
N        -10.83764       21.90285       -7.25384
C         -9.50304       18.86620       -6.32985
N         -9.88176       17.85904       -5.90464
C         -7.11747       21.51582       -7.75706
C         -5.87774       21.14194       -8.31058
C         -5.58758       19.73054       -8.03101
O         -4.72880       19.05289       -8.55021
C         -5.02480       22.02804       -8.94048
C         -5.41823       23.36490       -9.02023
C         -6.66628       23.77893       -8.46988
C         -7.49716       22.84140       -7.82840
C         -7.03985       25.12554       -8.57742
C         -6.20470       26.04820       -9.21071
C         -4.97754       25.64110       -9.72811
C         -4.58357       24.30861       -9.62967
H          9.75270        2.82348       -2.79027
H          9.51619        7.80148       -2.28346
H         11.65357        7.75841       -1.07298
H         13.66298        6.54714       -0.33524
H         13.93559        4.13974       -0.85757
H         12.13358        2.90145       -1.99071
H          4.82558        4.14676       -2.25379
H          4.03029        8.70233        0.42398
H          1.86272        8.30779       -0.88379
H          2.87066        4.05825       -3.35493
H          0.43315        3.41094       -3.99011
H         -0.93398        7.86952       -1.91175
H          1.31108        8.83699       -3.78128
H         -0.15625        9.50115       -0.39540
H         -0.97484       10.96922        0.11244
H          1.94538       10.91384       -0.81728
H          1.40878       10.90357        0.87331
H          1.07598       12.30470       -0.15842
H         -0.40274       12.17117       -7.85650
H         -1.27194       13.61247       -7.34327
H         -2.48231       10.89603       -8.12159
H         -2.59750       12.41448       -9.02980
H         -3.44280       12.23255       -7.48486
H         -1.54163       14.83903       -4.41028
H         -4.02133       13.54623       -5.71278
H         -3.42352       16.92387       -0.36969
H         -3.95292       18.96110        0.94059
H         -4.19242       21.15529       -0.19695
H         -4.02983       21.30324       -2.66522
H         -7.13625       18.32220       -5.25678
H         -4.07105       21.67843       -9.32378
H         -8.42434       23.19648       -7.36788
H         -7.99115       25.47071       -8.17664
H         -6.51364       27.08614       -9.30011
H         -4.32499       26.36284      -10.21316
H         -3.61816       24.01180      -10.03497
