100

C          2.04885        1.83122        0.60893
C          2.45679        2.99965        1.15572
C          3.48954        3.78719        0.57499
N          4.34775        4.41250        0.10670
C          1.95276        3.45389        2.41245
N          1.54964        3.79350        3.44513
C          2.58983        1.15044       -0.58756
C          2.35577       -0.22882       -0.44556
C          2.62253       -1.14759       -1.44214
C          3.06281       -0.65586       -2.67528
C          3.26856        0.74521       -2.85832
C          3.06075        1.64264       -1.79332
C          3.61581        1.21878       -4.13090
C          3.74780        0.33951       -5.20692
C          3.56163       -1.02762       -5.02113
C          3.23093       -1.52424       -3.76068
C          1.54142       -0.48871        0.76101
O          1.18834       -1.56202        1.19855
C          1.11207        0.87195        1.20498
C         -0.15559        0.99917        1.62678
C         -0.85829        2.22011        1.45584
S         -2.11352        2.67225        2.53275
C         -2.28078        4.13946        1.62780
N         -1.47784        4.19756        0.58427
N         -0.66489        3.09640        0.48616
C         -3.21997        5.10533        2.06231
C         -3.39017        6.27729        1.42729
C         -4.30309        7.28722        1.89619
N         -4.97278        8.19772        1.07305
C         -4.93384        8.27121       -0.37372
C         -6.01284        7.42454       -1.03145
C         -5.80626        9.06063        1.82199
O         -6.53982        9.95379        1.45205
C         -5.57654        8.61571        3.20468
C         -4.62680        7.54135        3.16955
C         -4.38991        7.10339        4.55654
O         -3.65926        6.21245        4.93872
N         -5.24144        7.94163        5.29897
C         -5.36923        7.78430        6.73244
C         -4.33717        8.59397        7.50112
C         -5.93047        8.83117        4.47179
C         -6.89177        9.79322        4.91907
C         -6.59543       10.80534        5.74507
C         -7.58203       11.73927        6.14684
S         -7.12442       13.05296        7.16660
C         -8.76057       13.58651        7.11911
N         -9.54326       12.79980        6.40758
N         -8.86438       11.74480        5.84083
C         -9.11827       14.76150        7.82524
C        -10.35953       14.90154        8.30965
C        -10.76299       16.07820        9.04509
C        -11.69935       16.12472       10.00395
C        -12.24620       17.28361       10.74646
C        -11.65257       18.48709       10.94791
C        -12.22950       19.50467       11.75952
N        -12.68829       20.34249       12.41284
C        -10.37080       18.82278       10.42269
N         -9.32657       19.09937        9.99800
C        -13.50915       16.80903       11.39182
C        -13.57946       15.41643       11.26076
C        -12.46301       14.91257       10.46110
O        -12.24178       13.73805       10.24692
C        -14.59639       14.63756       11.78857
C        -15.62861       15.28428       12.46877
C        -15.61825       16.70256       12.58049
C        -14.55681       17.45507       12.03207
C        -16.67557       17.33343       13.24520
C        -17.71834       16.59066       13.80192
C        -17.71944       15.20242       13.69894
C        -16.68152       14.55116       13.03375
H          2.38779       -2.19749       -1.29260
H          3.17492        2.71061       -1.96012
H          3.75419        2.28407       -4.30657
H          3.98509        0.72528       -6.19524
H          3.65756       -1.70891       -5.86270
H          3.07208       -2.59431       -3.64294
H         -0.72606        0.12371        1.92929
H         -3.78526        4.86743        2.95733
H         -2.80845        6.50448        0.53718
H         -3.94218        7.99028       -0.74019
H         -5.09470        9.31740       -0.66089
H         -5.82548        6.35733       -0.87781
H         -6.03703        7.61376       -2.10984
H         -7.00372        7.65384       -0.62529
H         -5.21054        6.72469        6.97073
H         -6.38800        8.03097        7.04606
H         -3.31898        8.31093        7.21554
H         -4.45219        8.43205        8.57680
H         -4.43749        9.66389        7.31458
H         -7.89161        9.69982        4.49474
H         -5.58504       10.94257        6.10984
H         -8.35842       15.51635        8.00368
H        -11.09233       14.10725        8.16297
H        -10.24902       16.97608        8.71615
H        -14.58126       13.55897       11.65659
H        -14.59805       18.53614       12.11739
H        -16.69836       18.41889       13.34418
H        -18.53002       17.09737       14.31797
H        -18.53030       14.62487       14.13566
H        -16.70241       13.46534       12.96128
