122

C          5.82513        5.34024       -2.75509
C          4.94075        5.04700       -3.74762
C          4.96537        5.73116       -4.99794
N          4.98353        6.31736       -6.00280
C          4.15026        3.86115       -3.70988
N          3.57400        2.84701       -3.70923
C          7.24027        5.57707       -3.14403
C          8.00647        4.59092       -2.48967
C          9.34908        4.39904       -2.74089
C          9.98148        5.28985       -3.61541
C          9.24331        6.35881       -4.21161
C          7.85702        6.47769       -3.99271
C          9.92238        7.29298       -5.00497
C         11.29668        7.17965       -5.22031
C         12.00517        6.11236       -4.67534
C         11.35081        5.16893       -3.88314
C          7.18637        3.90653       -1.46082
O          7.51246        2.99263       -0.73637
C          5.88838        4.66314       -1.46135
C          5.32698        4.93969       -0.27007
C          4.50532        6.09046        0.08300
C          4.89208        7.11312        0.89619
N          6.16607        7.21258        1.57195
O          6.18899        7.87021        2.62122
O          7.15415        6.67507        1.05460
C          3.88179        8.13676        1.02031
C          2.83071        7.77710        0.27173
C          3.12081        6.47810       -0.33558
C          2.20378        5.75873       -1.01264
C          2.31592        4.32520       -1.24430
C          1.18055        3.90896       -1.82334
C          0.30208        5.04417       -1.97494
N         -1.01865        4.94334       -2.55081
O         -1.89113        5.73320       -2.16591
O         -1.20615        4.02089       -3.35508
C          0.87132        6.18923       -1.53599
C          0.32550        7.52211       -1.70910
C          0.88204        8.47079       -2.48152
C          0.29167        9.76394       -2.71004
N         -0.00908       10.69666       -1.70910
C          0.29326       10.60711       -0.29859
C          1.68069       11.13887        0.02975
C         -0.54419       11.88269       -2.25163
O         -0.86738       12.91874       -1.70702
C         -0.59028       11.58683       -3.68848
C         -0.03998       10.28100       -3.89971
C         -0.04548       10.03887       -5.35388
O          0.41125        9.06939       -5.92562
N         -0.63585       11.21873       -5.87614
C         -0.64557       11.47214       -7.30321
C          0.60207       12.20480       -7.76981
C         -0.94619       12.12122       -4.85740
C         -1.45897       13.45669       -4.97778
C         -2.32049       13.96505       -5.87204
C         -2.73616       15.36340       -5.71585
C         -4.03920       15.71869       -5.34280
C         -5.18692       14.80552       -5.23354
O         -5.17731       13.62683       -5.53372
S         -6.61412       15.64032       -4.66870
C         -5.74318       17.14373       -4.48965
O         -6.21492       18.13546       -3.96428
C         -4.36722       17.03904       -4.98990
C         -3.42212       18.07782       -5.02720
C         -2.12400       17.68560       -5.33991
C         -1.80646       16.40409       -5.73074
C         -0.39445       16.39770       -6.08098
O          0.21956       15.51931       -6.64572
O          0.09070       17.60323       -5.69765
C         -0.87564       18.41506       -5.20240
O         -0.71849       19.49818       -4.68050
C         -3.75605       19.50248       -4.85884
C         -3.80227       20.18840       -3.70629
C         -4.27907       21.56081       -3.46482
C         -3.94955       22.66854       -4.17135
C         -4.33637       23.97595       -3.76918
N         -4.66279       25.04663       -3.44345
C         -3.08898       22.59167       -5.30673
N         -2.39383       22.50943       -6.23146
C         -4.92720       21.53577       -2.12750
C         -4.48160       20.38139       -1.46418
C         -3.65505       19.55061       -2.36249
O         -3.02457       18.55134       -2.08603
C         -4.87593       20.04986       -0.18002
C         -5.77745       20.90228        0.47018
C         -6.26424       22.06548       -0.18665
C         -5.84332       22.36986       -1.50001
C         -7.16965       22.90013        0.49437
C         -7.58153       22.59743        1.79418
C         -7.10915       21.45331        2.42842
C         -6.21625       20.60758        1.77135
H          9.89139        3.60595       -2.23251
H          7.29557        7.27449       -4.47389
H          9.39181        8.13324       -5.44867
H         11.81537        7.92781       -5.81471
H         13.07339        6.02063       -4.85487
H         11.92673        4.34751       -3.46151
H          5.69823        4.38933        0.59992
H          3.95639        9.01285        1.64884
H          1.89502        8.29924        0.24737
H          3.13322        3.67671       -0.97517
H          0.95863        2.90139       -2.14338
H         -0.62807        7.71615       -1.21675
H          1.79299        8.26438       -3.04162
H          0.17207        9.57889        0.04469
H         -0.44600       11.20049        0.25121
H          2.45750       10.61057       -0.53174
H          1.88784       11.02079        1.09832
H          1.76471       12.20162       -0.21781
H         -1.54307       12.02202       -7.58794
H         -0.70002       10.50930       -7.82332
H          0.68887       13.18261       -7.29231
H          0.57194       12.35893       -8.85287
H          1.50713       11.64007       -7.52593
H         -1.11148       14.10658       -4.16943
H         -2.80041       13.37147       -6.64265
H         -4.03698       19.99021       -5.79122
H         -4.50434       19.14297        0.28386
H         -6.25821       23.23934       -1.99987
H         -7.56321       23.79531        0.01855
H         -8.28025       23.25440        2.30929
H         -7.43821       21.21371        3.43735
H         -5.86132       19.71724        2.28353
