102

C          4.50466        4.59375       -3.11566
C          5.70031        4.72135       -2.49568
C          6.92936        4.48378       -3.17103
N          7.92771        4.28659       -3.72799
C          5.80292        5.02575       -1.10509
N          5.87026        5.28771        0.02351
C          4.25317        4.15572       -4.51926
C          2.95441        3.63434       -4.57512
C          2.32717        3.20139       -5.72755
C          3.02502        3.33123       -6.92225
C          4.35198        3.85637       -6.91696
C          4.96420        4.25891       -5.70381
C          5.01316        3.99292       -8.14516
C          4.38247        3.64217       -9.34307
C          3.08332        3.14143       -9.33567
C          2.40791        2.98116       -8.12931
C          2.30806        3.73528       -3.27169
O          1.33225        3.09508       -2.95036
C          3.16926        4.67516       -2.47973
C          2.74361        5.63458       -1.63748
C          1.38133        5.89157       -1.30161
S          0.89058        7.51766       -0.99689
C         -0.75631        7.08590       -0.71952
C         -0.92582        5.72632       -0.90930
C          0.29838        5.05213       -1.15392
C         -2.17653        5.03027       -0.84691
N         -3.18570        4.46845       -0.76683
C         -1.67738        8.11607       -0.36974
C         -2.74310        7.86301        0.40560
C         -3.72749        8.83932        0.75017
N         -4.12567        9.10274        2.06063
C         -3.61352        8.47093        3.25969
C         -2.41936        9.20709        3.84258
C         -5.11096       10.10664        2.10751
O         -5.66134       10.61620        3.06135
C         -5.32707       10.40801        0.68213
C         -4.44780        9.58306       -0.09147
C         -4.68442        9.87141       -1.51589
O         -4.12247        9.37501       -2.47027
N         -5.68095       10.87031       -1.46859
C         -6.13578       11.53820       -2.67315
C         -7.35068       10.88593       -3.31412
C         -6.03697       11.16677       -0.15098
C         -7.02018       12.13438        0.22436
C         -6.76174       13.11940        1.09911
C         -7.71330       14.15271        1.49668
C         -9.06063       14.16103        1.18901
N         -9.91393       15.14013        1.54414
C         -9.37754       16.15175        2.24081
N         -8.08885       16.27669        2.55457
C         -7.29066       15.25026        2.21952
C        -10.30682       17.19531        2.63538
C        -10.29847       17.93057        3.75641
C        -11.34300       18.87963        4.20178
C        -12.11687       19.66248        3.41014
C        -13.04847       20.59845        3.93584
N        -13.81614       21.35693        4.35965
C        -12.02777       19.65757        1.98615
N        -11.96446       19.64808        0.82811
C        -11.25422       18.92905        5.69025
C        -10.07350       18.28773        6.08159
C         -9.37478       17.72330        4.92743
O         -8.28608       17.19972        5.01181
C         -9.65853       18.15251        7.39639
C        -10.47063       18.68609        8.39401
C        -11.69080       19.32806        8.04039
C        -12.07950       19.43210        6.68530
C        -12.49188       19.85497        9.06236
C        -12.09916       19.76014       10.39937
C        -10.90543       19.12830       10.73747
C        -10.09580       18.58910        9.74012
H          1.30480        2.83509       -5.68766
H          5.96202        4.68793       -5.73197
H          6.02591        4.38818       -8.18556
H          4.90629        3.76668      -10.28743
H          2.59206        2.87873      -10.26917
H          1.38969        2.59577       -8.14175
H          3.45614        6.37495       -1.27810
H          0.34463        3.97658       -1.24770
H         -1.48679        9.12618       -0.73045
H         -2.93326        6.87831        0.82072
H         -3.35822        7.42839        3.04566
H         -4.41561        8.45553        4.00702
H         -1.64537        9.38182        3.08888
H         -1.98005        8.62462        4.65883
H         -2.72146       10.17907        4.24626
H         -5.31643       11.50531       -3.40178
H         -6.32858       12.59468       -2.46016
H         -7.14677        9.84461       -3.58439
H         -7.62021       11.42218       -4.23120
H         -8.21668       10.90022       -2.64606
H         -7.99410       12.00977       -0.23581
H         -5.77039       13.20727        1.54527
H         -9.52993       13.36038        0.62760
H         -6.26469       15.35812        2.56159
H        -11.12005       17.26459        1.92173
H         -8.73099       17.63267        7.62258
H        -13.03180       19.89881        6.45616
H        -13.42920       20.35496        8.82661
H        -12.72719       20.18374       11.17880
H        -10.60187       19.05616       11.77865
H         -9.16714       18.09655       10.02252
