96

C          4.66304        0.74503        3.20518
N          4.10314       -0.36454        3.60132
C          2.81839       -0.20900        3.19208
C          2.64800        1.05876        2.53093
C          1.23549        1.19430        2.09874
O          0.70418        2.11087        1.51430
C          0.64255       -0.08223        2.56623
C          1.66373       -0.86729        3.21372
N          1.14976       -2.04232        3.65042
C         -0.09878       -1.96175        3.28426
C         -0.51670       -0.73011        2.57723
C          3.79302        1.72685        2.50264
C          4.13078        3.00377        1.96770
C          5.36455        3.52313        2.02641
C          5.67151        4.78870        1.46689
S          7.26507        5.06572        0.91719
C          6.90878        6.65460        0.34940
C          5.60298        6.98798        0.67061
C          4.89352        5.91489        1.29101
C          5.01124        8.26379        0.39492
N          4.52136        9.29304        0.17809
C          7.92830        7.43912       -0.27050
C          8.85654        6.88689       -1.06745
C          9.96653        7.59724       -1.62328
N         10.25860        7.62244       -2.98657
C          9.44560        7.06001       -4.04614
C          9.86841        5.64743       -4.41131
C         11.46150        8.30909       -3.24488
O         12.02899        8.53042       -4.29453
C         11.88996        8.71888       -1.89776
C         10.91386        8.25912       -0.95377
C         11.35311        8.67214        0.39131
O         10.77337        8.47844        1.44016
N         12.56265        9.35628        0.13000
C         13.30320       10.02447        1.18607
C         14.68050        9.44274        1.46376
C         12.85189        9.36037       -1.23806
C         14.01329        9.93324       -1.84169
C         14.35378       11.22339       -1.73949
C         15.55950       11.73771       -2.31880
C         16.51972       12.33541       -1.58621
C         17.62643       12.69532       -2.47576
C         17.20323       12.26364       -3.81952
C         15.99068       11.69598       -3.70348
C         17.89960       12.34612       -5.04621
N         18.45919       12.39264       -6.06156
C         18.77529       13.28913       -2.08842
C         19.85828       13.70450       -2.97789
C         20.82171       14.26567       -2.22471
C         20.42296       14.24392       -0.83486
C         19.21088       13.67086       -0.73255
C         18.54243       13.48388        0.50060
N         18.00611       13.32850        1.51858
C         22.02988       14.85834       -2.82257
N         22.01437       15.45160       -3.99439
C         23.29650       15.85430       -4.16001
C         24.09762       15.45862       -3.03074
C         25.50211       15.88344       -3.27445
O         26.48754       15.72607       -2.58901
C         25.40262       16.57034       -4.58307
C         24.04168       16.50631       -5.04580
N         23.92929       17.13171       -6.24567
C         25.14668       17.54169       -6.47263
C         26.16648       17.21953       -5.45133
C         23.35642       14.83953       -2.11598
C         23.71611       14.22816       -0.87351
C         24.67052       14.69049       -0.05547
H          5.72616        0.97473        3.36739
H         -0.84366       -2.74902        3.47032
H         -1.48369       -0.47012        2.19692
H          3.32062        3.54478        1.47885
H          6.18478        2.97104        2.47846
H          3.85737        5.97624        1.60568
H          7.93780        8.50968       -0.07455
H          8.83892        5.82627       -1.30901
H          9.54809        7.69920       -4.93098
H          8.39052        7.08343       -3.75275
H         10.89002        5.63404       -4.80476
H          9.20273        5.24052       -5.17906
H          9.83541        4.98338       -3.54205
H         12.71746        9.96942        2.11110
H         13.37826       11.08784        0.93857
H         14.61221        8.39279        1.76359
H         15.15996        9.99926        2.27673
H         15.33934        9.50217        0.59350
H         14.62520        9.24634       -2.42608
H         13.74362       11.92387       -1.17528
H         16.45223       12.48341       -0.52199
H         15.40283       11.25926       -4.49930
H         19.90047       13.63133       -4.05302
H         21.00469       14.64724       -0.01896
H         25.44894       18.10621       -7.36747
H         27.21074       17.45706       -5.44281
H         23.17644       13.32956       -0.58442
H         25.25931       15.57545       -0.28393
H         24.90786       14.18026        0.87290
