117

C          8.24614        6.41234        1.21472
C          7.49752        7.57677        1.21071
F          8.06870        8.72351        0.81975
C          6.15230        7.55859        1.55626
C          5.54510        6.36309        1.96281
C          6.26434        5.15846        1.97039
C          7.62702        5.20013        1.53570
C          8.30731        4.01904        1.27628
C          7.57457        2.85093        1.32987
C          6.34342        2.76148        1.99148
C          5.65562        3.92026        2.30401
C          5.92956        1.31572        2.03067
O          4.98072        0.83710        2.61272
C          6.97855        0.57981        1.19067
C          7.64471        1.65561        0.46561
C          7.62468        1.84290       -0.88259
C          6.93727        0.93700       -1.75316
N          6.35251        0.21113       -2.42840
C          8.29050        2.93210       -1.51841
N          8.91069        3.78830       -2.00026
C          7.31811       -0.72124        1.33603
C          8.51734       -1.44164        0.83553
C          9.45690       -2.15645        1.51213
C          9.48949       -2.45814        2.99608
C          8.81969       -1.44065        3.88768
C         10.60693       -2.65440        0.66740
C         11.81433       -3.22154        1.39320
C         13.23072       -2.66263        1.21962
C         10.38963       -2.54535       -0.66589
S          8.93913       -1.53858       -0.87298
O          7.90103       -2.27287       -1.56727
O          9.34847       -0.20754       -1.28511
C         11.18461       -3.02849       -1.78621
S         10.68290       -2.60088       -3.41678
C         12.06512       -3.28336       -4.18069
C         12.94424       -3.74608       -3.23823
C         12.32030       -3.84220       -1.94864
C         12.95782       -4.58377       -0.94257
C         14.35686       -4.78561       -1.10365
C         15.27460       -4.96135        0.10089
C         14.96183       -4.61809       -2.36906
C         14.24144       -4.21433       -3.51660
C         12.14129       -3.22646       -5.59367
C         11.68312       -4.24805       -6.33423
C         11.52882       -4.17350       -7.76105
C         12.51987       -3.89852       -8.63153
C         11.96714       -3.90510       -9.98567
C         10.53861       -4.20270       -9.82375
C         10.30100       -4.37675       -8.51467
C          9.53452       -4.28154      -10.80625
N          8.69578       -4.36227      -11.61689
C         12.67511       -3.68231      -11.11287
C         12.13496       -3.70880      -12.47185
C         13.13473       -3.44846      -13.33562
C         14.35540       -3.24330      -12.56873
C         14.10613       -3.37604      -11.25551
C         15.11078       -3.21271      -10.24657
N         15.90725       -3.07090       -9.44938
C         12.94877       -3.39493      -14.76231
C         13.20149       -2.29358      -15.48202
C         12.97736       -2.21996      -16.90408
C         13.60518       -1.41210      -17.76808
C         12.95567       -1.22256      -19.10510
O         12.14672       -1.93970      -19.65500
C         13.44069        0.07810      -19.58815
C         12.97160        0.75165      -20.70389
C         13.48471        2.02504      -20.96773
C         14.44356        2.59663      -20.08040
C         14.94269        3.87648      -20.35409
C         14.50906        4.57031      -21.47857
C         13.57627        4.02188      -22.34785
C         13.06110        2.75138      -22.09196
F         15.00188        5.79058      -21.72610
C         14.88461        1.88114      -18.94791
C         14.40422        0.60094      -18.71223
C         14.68901       -0.42280      -17.66368
C         15.84927       -0.52673      -16.96889
C         16.19488       -1.67691      -16.20002
N         16.52902       -2.59502      -15.57304
C         16.87267        0.46403      -17.02711
N         17.69585        1.28311      -17.06588
H          9.28294        6.45767        0.88810
H          5.57793        8.47699        1.48949
H          4.48509        6.37145        2.20610
H          9.30809        4.03067        0.85207
H          4.62899        3.87091        2.65803
H          6.69938       -1.29229        2.03202
H         10.50232       -2.52511        3.37333
H          9.10043       -3.45779        3.20911
H          9.07176       -0.41119        3.61504
H          9.11718       -1.61494        4.92408
H          7.74135       -1.56304        3.83684
H         11.71636       -4.31437        1.43263
H         11.76926       -2.99921        2.44168
H         13.74263       -2.73250        0.27557
H         13.88265       -3.23809        1.89701
H         13.25405       -1.58082        1.36371
H         12.46025       -4.83569       -0.04359
H         16.13254       -5.58899       -0.14770
H         14.75657       -5.41130        0.95198
H         15.69506       -3.99816        0.44376
H         16.03177       -4.82148       -2.44982
H         14.69175       -4.21561       -4.49822
H         12.47989       -2.29630       -6.03507
H         11.31564       -5.16202       -5.87335
H         13.53917       -3.71753       -8.34382
H          9.34642       -4.59702       -8.05798
H         11.11544       -3.89358      -12.76965
H         15.31759       -3.02795      -13.00855
H         12.59910       -4.30816      -15.24167
H         13.54055       -1.39081      -14.98088
H         12.12975       -2.81128      -17.26470
H         12.21768        0.29270      -21.33770
H         15.67718        4.34861      -19.70699
H         13.25571        4.58640      -23.21790
H         12.32826        2.33306      -22.77960
H         15.59144        2.35892      -18.27643
