108

C         -6.80178        1.00252       -0.34418
C         -5.89642        0.71558        0.67523
F         -5.56560        1.67725        1.54722
C         -5.35176       -0.55438        0.80022
F         -4.51528       -0.83563        1.80823
C         -5.66886       -1.54956       -0.11619
C         -6.55346       -1.27615       -1.16787
C         -7.16618        0.01047       -1.26779
C         -8.15085        0.25667       -2.25354
C         -8.50953       -0.75885       -3.13248
C         -7.82727       -1.98111       -3.05124
C         -6.86553       -2.26788       -2.09736
C         -8.44134       -2.97518       -3.93924
O         -7.98001       -4.05912       -4.22383
C         -9.76623       -2.38117       -4.30470
C         -9.63497       -0.92204       -4.10308
C        -10.30926        0.05902       -4.75065
C        -11.33517       -0.21530       -5.70091
N        -12.20444       -0.41510       -6.44581
C        -10.01756        1.43438       -4.54863
N         -9.76978        2.55715       -4.35815
C        -10.87401       -3.13012       -4.43538
C        -10.93718       -4.58577       -4.44539
C        -11.32166       -5.32999       -5.51392
N        -11.74558       -4.78945       -6.78680
O        -12.53071       -5.48225       -7.44877
O        -11.29869       -3.69228       -7.14564
C        -11.21675       -6.74485       -5.26443
C        -10.74433       -6.92558       -4.02343
C        -10.55091       -5.61262       -3.39788
C        -10.09534       -5.42110       -2.13523
C        -10.03509       -4.12126       -1.46023
C         -9.34357       -4.26500       -0.32254
C         -9.00653       -5.66107       -0.17189
N         -8.29282       -6.15354        0.98384
O         -7.65545       -7.20402        0.89361
O         -8.31721       -5.44154        2.00167
C         -9.51095       -6.41668       -1.17612
C         -9.50083       -7.86303       -1.20278
C         -8.68046       -8.64381       -1.92360
C         -8.69994      -10.08343       -1.86236
N         -8.42975      -10.84668       -0.71753
C         -8.17852      -10.38092        0.62337
C         -9.44206      -10.37541        1.47272
C         -8.50450      -12.22705       -0.97225
O         -8.35866      -13.16951       -0.22216
C         -8.84719      -12.25836       -2.39319
C         -8.97988      -10.91253       -2.87403
C         -9.40243      -10.98910       -4.28708
O         -9.65546      -10.06072       -5.02753
N         -9.48291      -12.38030       -4.51502
C         -9.88896      -12.94314       -5.78945
C         -8.72866      -13.05974       -6.76332
C         -9.12206      -13.10205       -3.37990
C         -9.17610      -14.52365       -3.28645
C         -8.17202      -15.31615       -2.87674
C         -8.29580      -16.77327       -2.76885
C         -9.44748      -17.53300       -3.04030
F        -10.57235      -16.92249       -3.44882
C         -9.53410      -18.93531       -2.91080
F        -10.75988      -19.44608       -3.11319
C         -8.46701      -19.78675       -2.54656
C         -7.28690      -19.04882       -2.24437
C         -7.20227      -17.56781       -2.34524
N         -5.95737      -17.20056       -1.98099
N         -5.37241      -18.36840       -1.69027
N         -6.08317      -19.49279       -1.83466
C         -3.99413      -18.43106       -1.26252
C         -8.54289      -21.26370       -2.46713
C         -7.82153      -21.96532       -1.49646
N         -7.82726      -23.30507       -1.33717
C         -8.60779      -23.99870       -2.19099
C         -9.38105      -23.44972       -3.19166
C         -9.33242      -22.04273       -3.34461
N        -10.05293      -21.48171       -4.34838
C        -10.83898      -22.27813       -5.10397
C        -10.87636      -23.63930       -4.92699
N        -10.14083      -24.24978       -3.97867
H         -7.21820        2.00538       -0.39590
H         -5.22826       -2.53497        0.01442
H         -8.65552        1.21850       -2.25739
H         -6.43576       -3.26498       -2.04446
H        -11.84586       -2.65465       -4.55967
H        -11.45756       -7.52168       -5.97484
H        -10.57555       -7.89546       -3.59339
H        -10.49751       -3.20350       -1.77498
H         -9.13292       -3.50654        0.41559
H        -10.21671       -8.31993       -0.52814
H         -7.97685       -8.20721       -2.63121
H         -7.70666       -9.40749        0.57806
H         -7.45049      -11.05301        1.09234
H        -10.25136       -9.80836        1.00659
H         -9.24285       -9.93943        2.45569
H         -9.81481      -11.39463        1.62065
H        -10.65243      -12.28720       -6.22255
H        -10.35614      -13.92228       -5.63939
H         -8.27699      -12.08105       -6.95488
H         -9.07570      -13.46744       -7.71826
H         -7.94793      -13.72032       -6.37314
H        -10.15043      -14.91652       -3.54963
H         -7.20898      -14.88774       -2.59777
H         -3.55942      -17.42877       -1.27931
H         -3.45090      -19.08413       -1.95059
H         -3.96336      -18.83644       -0.24771
H         -7.18932      -21.45424       -0.77390
H         -8.59859      -25.07574       -2.04696
H        -11.44252      -21.77932       -5.85340
H        -11.49587      -24.27942       -5.54378
