106

C         -8.26466       -0.99880       -7.19031
C         -9.15371       -1.64753       -8.04440
F         -9.40015       -1.12299       -9.25235
C         -9.77827       -2.82458       -7.65651
F        -10.61774       -3.45183       -8.49129
C         -9.54373       -3.36437       -6.39866
C         -8.67007       -2.71784       -5.51496
C         -7.99754       -1.52271       -5.91715
C         -7.07761       -0.89055       -5.04722
C         -6.85227       -1.41979       -3.78415
C         -7.55666       -2.57743       -3.42085
C         -8.44951       -3.24085       -4.24326
C         -7.17472       -3.00991       -2.07744
O         -7.83350       -3.73738       -1.36480
C         -5.92481       -2.24314       -1.76330
C         -5.93784       -1.06136       -2.65603
C         -5.36369        0.14280       -2.41732
C         -5.53088        1.25279       -3.28828
N         -5.67223        2.15643       -4.00832
C         -4.59948        0.40172       -1.23859
N         -3.97566        0.59283       -0.27857
C         -4.93567       -2.70756       -0.98344
C         -4.96038       -3.99415       -0.38326
O         -5.58510       -5.09854       -0.91068
C         -5.39582       -6.14159       -0.02908
N         -4.60886       -5.78073        0.97270
C         -4.35322       -4.45106        0.76865
C         -5.99659       -7.41025       -0.22355
N         -6.40930       -8.31544        0.76664
C         -6.43958       -8.08230        2.20552
C         -6.21262       -9.33810        3.05097
C         -7.01279       -9.43987        0.18032
O         -7.54528      -10.39286        0.70923
C         -6.87151       -9.20081       -1.26636
C         -6.23959       -7.92271       -1.43251
C         -6.08116       -7.68240       -2.87516
O         -5.56161       -6.72881       -3.41753
N         -6.63957       -8.84610       -3.44823
C         -6.69976       -9.02145       -4.88812
C         -7.96533       -8.43027       -5.49064
C         -7.10141       -9.73561       -2.46887
C         -7.66506      -11.02224       -2.78212
C         -8.08245      -11.93432       -1.89223
C         -8.55460      -13.25058       -2.20615
C         -8.16783      -13.96033       -3.28375
C         -8.70960      -15.30739       -3.16552
C         -9.45603      -15.33183       -1.90156
C         -9.35354      -14.11310       -1.34949
C        -10.21227      -16.38530       -1.33906
N        -10.82373      -17.25276       -0.87305
C         -8.48355      -16.29913       -4.04600
C         -8.82772      -17.69820       -3.82973
C         -8.40841      -18.40526       -4.89370
C         -7.79829      -17.48886       -5.84735
C         -7.82360      -16.23715       -5.35743
C         -7.34228      -15.11181       -6.06048
N         -6.93756      -14.18681       -6.64969
C         -8.50013      -19.83468       -4.95822
C         -9.05484      -20.56285       -5.93204
C         -8.68484      -22.01206       -5.98925
O         -8.22484      -22.70467       -5.10656
C         -8.90691      -22.40880       -7.38726
C         -8.59450      -23.63796       -7.94098
C         -8.84364      -23.82175       -9.30430
C         -9.35479      -22.74037      -10.08455
C         -9.60516      -22.93529      -11.44869
C         -9.37043      -24.17647      -12.02889
C         -8.87476      -25.22769      -11.27038
C         -8.60336      -25.05866       -9.91650
F         -8.65788      -26.42219      -11.83646
F         -9.63676      -24.34947      -13.33029
C         -9.62765      -21.49705       -9.48713
C         -9.44904      -21.34168       -8.12187
C         -9.76116      -20.23525       -7.17474
C        -10.73509      -19.30886       -7.35615
C        -11.26495      -18.52359       -6.29073
N        -11.75811      -17.89029       -5.45302
C        -11.40126      -19.12602       -8.60289
N        -11.92011      -18.97297       -9.62939
H         -7.79374       -0.08151       -7.53386
H        -10.04747       -4.28749       -6.12373
H         -6.54697       -0.01081       -5.39959
H         -8.93263       -4.15008       -3.89483
H         -4.01666       -2.14951       -0.84195
H         -3.75854       -3.88051        1.46694
H         -7.41618       -7.65084        2.45373
H         -5.66980       -7.35880        2.48224
H         -6.90018      -10.15096        2.80963
H         -6.36975       -9.12743        4.11254
H         -5.19490       -9.71567        2.91354
H         -6.61101      -10.08030       -5.14739
H         -5.83164       -8.52039       -5.33145
H         -8.86316       -8.82418       -5.00389
H         -8.02221       -8.66852       -6.55779
H         -7.97808       -7.33994       -5.38751
H         -7.72640      -11.27875       -3.83440
H         -8.06407      -11.75304       -0.82810
H         -7.47537      -13.60229       -4.02589
H         -9.79221      -13.78858       -0.41551
H         -9.29294      -18.13040       -2.95873
H         -7.38498      -17.79179       -6.79802
H         -7.96626      -20.34606       -4.15256
H         -8.18041      -24.42523       -7.31616
H        -10.00238      -22.13768      -12.07167
H         -8.21854      -25.90411       -9.35262
H         -9.98855      -20.68642      -10.11243
