114

C        -13.63355       -9.67285       -3.71189
C        -14.34895       -8.92206       -4.64178
F        -15.60477       -9.27816       -4.94434
C        -13.77431       -7.81438       -5.24779
F        -14.47083       -7.09254       -6.13582
C        -12.47118       -7.44109       -4.94115
C        -11.72856       -8.18543       -4.01329
C        -12.31736       -9.31748       -3.37491
C        -11.58512      -10.05218       -2.41194
C        -10.28150       -9.68121       -2.09743
C         -9.73561       -8.57719       -2.76117
C        -10.41860       -7.81977       -3.69989
C         -8.38293       -8.29816       -2.27204
O         -7.58772       -7.55801       -2.81250
C         -8.21661       -9.12924       -1.03462
C         -9.27009      -10.18207       -1.11364
C         -9.25181      -11.41290       -0.54723
C         -8.18989      -11.85181        0.29674
N         -7.33134      -12.19889        0.99379
C        -10.25189      -12.39170       -0.79888
N        -11.07459      -13.18813       -1.01387
C         -7.37025       -8.82097       -0.03234
C         -6.43962       -7.72433        0.08161
C         -5.18572       -7.94712        0.62246
S         -4.20176       -6.55273        0.63748
C         -5.44798       -5.61713       -0.03945
C         -6.61859       -6.33208       -0.25779
C         -7.80484       -5.66195       -0.78764
O         -8.95647       -6.03198       -0.58136
O         -7.43463       -4.56762       -1.53105
C         -8.47060       -3.91003       -2.16685
C         -8.64820       -2.59654       -2.02017
C         -9.66127       -1.87335       -2.71543
N        -11.02492       -2.17156       -2.66147
C        -11.66673       -3.16902       -1.82295
C        -12.05322       -2.62667       -0.45635
C        -11.77229       -1.28567       -3.46303
O        -12.97056       -1.22450       -3.64580
C        -10.73203       -0.41349       -4.03726
C         -9.45949       -0.83077       -3.52497
C         -8.42625        0.05251       -4.10181
O         -7.22805        0.00071       -3.91666
N         -9.18601        0.95242       -4.87878
C         -8.59124        2.07370       -5.58260
C         -8.13004        1.73239       -6.98982
C        -10.54024        0.62950       -4.84337
C        -11.54600        1.35625       -5.54712
C        -12.41359        0.76340       -6.37816
C        -13.48928        1.45252       -7.03456
C        -14.37067        0.83145       -7.84611
C        -15.38804        1.80095       -8.25540
C        -14.98851        3.07509       -7.64713
C        -13.87638        2.85133       -6.93115
C        -15.59048        4.34917       -7.75981
N        -16.07461        5.39858       -7.83796
C        -16.48447        1.51786       -8.98632
C        -17.57831        2.44438       -9.27248
C        -18.52742        1.78843       -9.96876
C        -18.09673        0.40531      -10.12158
C        -16.87357        0.24288       -9.59389
C        -16.13899       -0.95864       -9.70877
N        -15.55492       -1.95393       -9.83076
C        -19.76930        2.39776      -10.36543
C        -20.51300        2.11465      -11.44160
C        -21.92110        2.62863      -11.45494
O        -22.40191        3.51631      -10.78309
C        -22.64088        1.76737      -12.40494
C        -23.99524        1.82143      -12.68612
C        -24.51031        0.89944      -13.60227
C        -23.65745       -0.10419      -14.15449
C        -24.18875       -1.02943      -15.06350
C        -25.52269       -0.94250      -15.44792
C        -26.34540        0.04477      -14.92424
C        -25.85396        0.95671      -13.99611
F        -27.62323        0.13492      -15.31634
F        -26.00281       -1.81542      -16.34364
C        -22.29103       -0.14153      -13.81635
C        -21.76522        0.83766      -12.98675
C        -20.37617        1.18933      -12.57447
C        -19.26261        0.93763      -13.30837
C        -18.01299        1.58351      -13.06926
N        -16.98270        2.09157      -12.90492
C        -19.26515        0.07146      -14.43934
N        -19.27300       -0.65223      -15.34624
H        -14.12105      -10.53230       -3.25902
H        -12.05168       -6.56719       -5.43287
H        -12.07754      -10.88392       -1.91723
H         -9.93950       -6.95352       -4.14796
H         -7.35504       -9.46578        0.84317
H         -4.77120       -8.87359        0.99538
H         -5.27689       -4.56538       -0.23664
H         -9.05003       -4.55851       -2.81320
H         -7.96449       -2.02498       -1.39694
H        -11.02549       -4.04477       -1.70550
H        -12.57149       -3.51284       -2.33659
H        -11.17735       -2.26577        0.09227
H        -12.52690       -3.41377        0.13977
H        -12.76056       -1.79642       -0.54739
H         -7.72596        2.41350       -5.00254
H         -9.30047        2.90778       -5.61166
H         -7.39070        0.92564       -6.98072
H         -7.66718        2.61090       -7.45313
H         -8.96718        1.41937       -7.62153
H        -11.59117        2.42194       -5.34618
H        -12.34862       -0.31180       -6.55489
H        -14.33907       -0.22116       -8.07698
H        -13.33686        3.58866       -6.35897
H        -17.65142        3.47833       -8.97672
H        -18.66436       -0.35887      -10.63043
H        -20.15533        3.12792       -9.64798
H        -24.61796        2.57769      -12.21486
H        -23.57240       -1.80924      -15.50408
H        -26.52576        1.71747      -13.60751
H        -21.67020       -0.92785      -14.23573
