117

C         -1.20823       -3.41226       -2.04088
C         -0.28850       -4.30450       -2.58638
F          1.01257       -3.98494       -2.58279
C         -0.70444       -5.52456       -3.10070
F          0.19304       -6.40120       -3.56954
C         -2.05226       -5.86078       -3.11569
C         -2.99673       -4.98024       -2.57439
C         -2.56936       -3.74544       -1.99312
C         -3.49482       -2.91400       -1.32532
C         -4.81652       -3.32509       -1.21323
C         -5.20855       -4.51895       -1.83589
C         -4.34433       -5.33990       -2.53803
C         -6.55758       -4.90595       -1.39946
O         -7.22461       -5.81642       -1.85619
C         -6.84591       -4.02024       -0.22334
C         -5.95506       -2.85129       -0.37726
C         -6.19758       -1.58094        0.01810
C         -7.37629       -1.22361        0.72872
N         -8.32028       -0.93139        1.33947
C         -5.32080       -0.50798       -0.30510
N         -4.58837        0.35100       -0.57246
C         -7.52218       -4.42783        0.86630
C         -8.19191       -5.70866        1.05056
C         -9.51646       -5.88415        1.29464
N        -10.48904       -4.82059        1.39794
O        -11.49339       -5.05445        2.08480
O        -10.28377       -3.76943        0.77901
C         -9.89207       -7.27702        1.34259
C         -8.80462       -8.01832        1.09418
C         -7.66136       -7.11339        0.90943
C         -6.39673       -7.52061        0.64831
C         -5.18690       -6.71451        0.82408
C         -4.13382       -7.44742        0.43099
C         -4.61786       -8.72271       -0.04568
N         -3.76124       -9.68096       -0.71713
O         -2.55788       -9.63958       -0.42469
O         -4.24702      -10.43925       -1.56580
C         -5.95659       -8.83784        0.09470
C         -6.74227       -9.96279       -0.35513
C         -7.72728       -9.85821       -1.25904
C         -8.45823      -10.98050       -1.74622
S         -9.74349      -10.66901       -2.84923
C        -10.09076      -12.33299       -3.11249
C         -9.27234      -13.11620       -2.33236
C         -8.36348      -12.34339       -1.53018
N         -7.47112      -12.90300       -0.67318
C         -7.51333      -14.25921       -0.69717
O         -6.59797      -14.92771        0.09758
C         -5.39016      -14.18026        0.30427
C         -4.54230      -14.15712       -0.96008
C         -8.39832      -15.02604       -1.48433
C         -8.37141      -16.53812       -1.43350
N         -9.30305      -17.09439       -0.44964
N         -9.31445      -14.47655       -2.33800
C        -11.13560      -12.71720       -4.06648
C        -11.90147      -13.87189       -3.89315
C        -12.88158      -14.22197       -4.84306
N        -13.65667      -15.41329       -4.53325
O        -13.03199      -16.47068       -4.37270
O        -14.88312      -15.28159       -4.42710
C        -13.11230      -13.46774       -6.01579
C        -12.31097      -12.33097       -6.15828
C        -11.37062      -11.94729       -5.20354
C        -14.06594      -13.86305       -7.08562
C        -14.43401      -13.28781       -8.24768
C        -14.04444      -12.01161       -8.81558
C        -13.82116      -11.74287      -10.11035
C        -12.96037      -10.55996      -10.47183
O        -12.73997       -9.56589       -9.81480
C        -12.32624      -10.92792      -11.75886
C        -11.37090      -10.20691      -12.45759
C        -10.85211      -10.77154      -13.63294
C        -11.23801      -12.09446      -14.01584
C        -10.69082      -12.66676      -15.17164
C         -9.83362      -11.92558      -15.97632
C         -9.48794      -10.62734      -15.62900
C         -9.97007      -10.05397      -14.45481
F         -8.69707       -9.90463      -16.43378
F         -9.36482      -12.47068      -17.10683
C        -12.19263      -12.80215      -13.26693
C        -12.79061      -12.18478      -12.18126
C        -13.93313      -12.56010      -11.31352
C        -15.04496      -13.20955      -11.73449
C        -16.28030      -13.11696      -11.02564
N        -17.29026      -13.01994      -10.46596
C        -15.10470      -13.89830      -12.97509
N        -15.13036      -14.47680      -13.98359
H         -0.83820       -2.47616       -1.63004
H         -2.34223       -6.82925       -3.51659
H         -3.13403       -2.01422       -0.83238
H         -4.70169       -6.28055       -2.94898
H         -7.58029       -3.78332        1.74265
H        -10.88761       -7.64254        1.54697
H         -8.78866       -9.09593        1.10718
H         -5.12189       -5.73125        1.25652
H         -3.09283       -7.16326        0.46458
H         -6.43342      -10.92527        0.04097
H         -7.98630       -8.87353       -1.65043
H         -4.83112      -14.69256        1.09473
H         -5.58532      -13.17131        0.68808
H         -4.23043      -15.17382       -1.21938
H         -3.65271      -13.53738       -0.82223
H         -5.09991      -13.77175       -1.82009
H         -7.35817      -16.90398       -1.23735
H         -8.64566      -16.92032       -2.42458
H         -9.02379      -16.79332        0.48221
H         -9.22535      -18.10971       -0.46070
H        -11.74506      -14.50912       -3.02232
H        -12.34453      -11.69029       -7.02485
H        -10.80738      -11.03669       -5.40014
H        -14.53024      -14.83764       -6.91785
H        -15.11214      -13.88904       -8.84686
H        -13.84189      -11.20940       -8.11099
H        -11.05629       -9.22904      -12.10126
H        -10.94876      -13.67655      -15.48069
H         -9.67451       -9.03573      -14.21568
H        -12.47115      -13.80930      -13.56735
