104

C        -12.40184       -1.53762        6.84168
C        -13.30354       -2.14805        7.71061
F        -14.48614       -1.56305        7.94410
C        -12.98717       -3.34941        8.32810
F        -13.86270       -3.93544        9.15582
C        -11.76054       -3.95910        8.09458
C        -10.83462       -3.36025        7.22875
C        -11.15626       -2.13043        6.58120
C        -10.23414       -1.53235        5.68981
C         -9.00309       -2.13437        5.45372
C         -8.73077       -3.34341        6.10504
C         -9.60280       -3.96680        6.98400
C         -7.44005       -3.88877        5.67921
O         -6.91128       -4.86217        6.17221
C         -6.96913       -3.00370        4.55915
C         -7.83380       -1.79612        4.58299
C         -7.55205       -0.57866        4.05535
C         -6.34379       -0.31167        3.34653
N         -5.36040       -0.10019        2.76722
C         -8.40462        0.54982        4.22067
N         -9.10293        1.46683        4.35792
C         -6.07571       -3.40763        3.63957
C         -5.37632       -4.67108        3.62390
C         -5.46664       -5.55745        2.60836
C         -4.65035       -6.73462        2.93596
C         -4.05479       -6.44097        4.24822
C         -4.47908       -5.22420        4.62541
C         -3.19738       -7.24071        5.03657
N         -2.47995       -7.89008        5.67830
C         -4.50335       -7.83558        2.16708
C         -3.67595       -9.00133        2.49090
C         -3.77329       -9.87519        1.47287
C         -4.65105       -9.33424        0.46047
C         -5.10111       -8.13162        0.85521
C         -5.99649       -7.35527        0.08551
N         -6.73120       -6.72558       -0.55565
C         -3.05400      -11.15278        1.43645
S         -4.12702      -12.53962        2.25224
C         -3.00430      -13.31770        1.08751
C         -3.21078      -12.04934        0.18713
N         -2.12726      -12.23819       -0.78112
C         -2.31882      -13.68612       -1.12181
C         -3.28913      -14.27653       -0.03949
C         -3.00984      -15.69886        0.31913
C         -3.72154      -16.77071       -0.08946
C         -3.07380      -17.98042        0.43079
C         -1.96334      -17.49981        1.26710
C         -1.92840      -16.16036        1.17096
C         -1.07539      -18.23871        2.07895
N         -0.34498      -18.83036        2.76148
C         -3.39777      -19.25155        0.11119
C         -2.66203      -20.44576        0.52844
C         -3.12992      -21.50186       -0.16435
C         -4.25966      -21.05589       -0.96527
C         -4.45179      -19.73677       -0.78768
C         -5.53538      -19.02165       -1.34579
N         -6.43074      -18.44803       -1.81062
C         -2.59567      -22.82917       -0.03267
C         -2.03605      -23.59705       -0.97723
C         -1.87554      -25.05092       -0.64716
O         -1.91349      -25.58019        0.44356
C         -1.73892      -25.73727       -1.93892
C         -1.66198      -27.10951       -2.11928
C         -1.56136      -27.59708       -3.42551
C         -1.58402      -26.68513       -4.52291
C         -1.47876      -27.18782       -5.82850
C         -1.34043      -28.55577       -6.04396
C         -1.31687      -29.43943       -4.97471
C         -1.43246      -28.97218       -3.66977
F         -1.17640      -30.75439       -5.18963
F         -1.22219      -29.01175       -7.29824
C         -1.69001      -25.29665       -4.29312
C         -1.72872      -24.81048       -2.99245
C         -1.71179      -23.43470       -2.40302
C         -1.20225      -22.33755       -3.01669
C         -0.84093      -21.15126       -2.31300
N         -0.48891      -20.17908       -1.78606
C         -0.86166      -22.31188       -4.40115
N         -0.60141      -22.28821       -5.53071
H        -12.68908       -0.59754        6.37742
H        -11.54427       -4.90132        8.59171
H        -10.52699       -0.61408        5.18960
H         -9.32445       -4.91241        7.44317
H         -5.86463       -2.80464        2.75974
H         -6.06779       -5.40744        1.72738
H         -4.23881       -4.72488        5.55329
H         -3.08037       -9.16564        3.37339
H         -4.90939       -9.83161       -0.46295
H         -2.04904      -11.11178        1.87781
H         -1.99289      -13.42237        1.50979
H         -4.18638      -11.95417       -0.31959
H         -1.18493      -12.10987       -0.40876
H         -1.34384      -14.18619       -1.12667
H         -2.75850      -13.78168       -2.12076
H         -4.32717      -14.18993       -0.39419
H         -4.58572      -16.71211       -0.73043
H         -1.22307      -15.52128        1.68230
H         -1.83131      -20.49657        1.21279
H         -4.88205      -21.71865       -1.54945
H         -2.74472      -23.25243        0.96444
H         -1.67052      -27.77126       -1.25654
H         -1.48530      -26.52713       -6.69196
H         -1.40817      -29.69225       -2.85595
H         -1.72614      -24.63437       -5.15278
