101

C        -14.29150        2.92640       -6.63147
C        -14.02774        4.25870       -6.30876
F        -14.91215        5.20402       -6.65447
C        -12.86971        4.60918       -5.62921
F        -12.59836        5.89472       -5.36625
C        -12.00317        3.62657       -5.17583
C        -12.31353        2.27813       -5.39420
C        -13.42015        1.90758       -6.21283
C        -13.62221        0.54198       -6.56309
C        -12.81541       -0.44086       -6.00477
C        -11.94180       -0.02540       -4.99753
C        -11.58643        1.28745       -4.75037
C        -11.46503       -1.18712       -4.26022
O        -11.17025       -1.22440       -3.08511
C        -11.52429       -2.31139       -5.23116
C        -12.61283       -1.92383       -6.18818
C        -13.31033       -2.73003       -7.02330
C        -14.33220       -2.26915       -7.89373
N        -15.17499       -1.88547       -8.60955
C        -13.05429       -4.13948       -7.05698
N        -12.81377       -5.27557       -7.07238
C        -10.54164       -3.24306       -5.24636
C         -9.39535       -3.37235       -4.31580
C         -8.61607       -2.38023       -3.78942
N         -8.59980       -0.99481       -4.20188
O         -8.33881       -0.14377       -3.33830
O         -8.80961       -0.74128       -5.39736
C         -7.69880       -2.84400       -2.78605
C         -7.79433       -4.17366       -2.71126
C         -8.80535       -4.63096       -3.68158
C         -8.97630       -5.94537       -3.97314
C         -9.61936       -6.48438       -5.17423
C         -9.29409       -7.78365       -5.27625
C         -8.54248       -8.16080       -4.10662
N         -8.24148       -9.53198       -3.77147
O         -7.11697       -9.79290       -3.32291
O         -9.14818      -10.35868       -3.94658
C         -8.43863       -7.13776       -3.23027
C         -8.09650       -7.26046       -1.82634
C         -8.52933       -8.25275       -1.03350
C         -8.17893       -8.44456        0.34000
N         -8.95494       -9.20337        1.22336
C        -10.13387       -9.98682        0.88607
C        -11.32414       -9.19126        0.36303
C         -8.30884       -9.34015        2.47064
O         -8.64610       -9.96107        3.46152
C         -7.05142       -8.59336        2.28248
C         -7.05435       -8.06245        0.95150
C         -5.79319       -7.33297        0.75805
O         -5.44111       -6.71090       -0.22584
N         -5.13785       -7.49281        1.99575
C         -3.89912       -6.78539        2.23581
C         -2.74976       -7.35995        1.41870
C         -5.90367       -8.26413        2.87918
C         -5.60021       -8.61260        4.24238
C         -4.40627       -8.70332        4.84189
C         -4.19490       -8.97470        6.23566
C         -3.09634       -9.72102        6.61631
S         -3.03346       -9.98454        8.29763
C         -4.45167       -9.06771        8.54196
C         -4.97796       -8.52926        7.37539
C         -6.15791       -7.64719        7.38118
O         -6.56731       -7.04670        6.39284
O         -6.75483       -7.56561        8.62486
C         -8.06471       -7.10883        8.51982
C         -8.50343       -5.95968        9.04301
C         -9.87111       -5.60249        8.90174
O        -10.70278       -6.09823        7.90579
C        -11.93836       -5.54877        8.06474
C        -11.93510       -4.72283        9.15208
C        -10.64046       -4.74630        9.67277
F        -10.22665       -4.09606       10.72386
F        -12.95058       -4.04953        9.60876
H        -15.20379        2.69829       -7.17561
H        -11.11304        3.92329       -4.62626
H        -14.42560        0.30181       -7.25252
H        -10.77854        1.51421       -4.05925
H        -10.52636       -3.96299       -6.05425
H         -7.02936       -2.21238       -2.22084
H         -7.11967       -4.75138       -2.10781
H        -10.23273       -5.97450       -5.89211
H         -9.60649       -8.47873       -6.04081
H         -7.46483       -6.50108       -1.39476
H         -9.17535       -9.02364       -1.44005
H        -10.45724      -10.53834        1.77663
H         -9.82919      -10.74111        0.14990
H        -11.67958       -8.47644        1.11025
H        -12.14466       -9.87264        0.11656
H        -11.09975       -8.62873       -0.54574
H         -3.64762       -6.76073        3.29568
H         -4.04957       -5.74005        1.93939
H         -2.65696       -8.44080        1.56414
H         -1.80454       -6.88606        1.69968
H         -2.90087       -7.18197        0.34818
H         -6.49126       -8.83720        4.83047
H         -3.50796       -8.61340        4.23841
H         -2.33167      -10.14957        5.98076
H         -4.82259       -8.95019        9.55147
H         -8.68718       -7.82022        7.98612
H         -7.83549       -5.29523        9.58121
H        -12.68444       -5.84631        7.34252
