93

C         -3.76925       -3.05092       -8.02887
C         -3.16474       -1.86189       -8.43641
F         -3.37427       -1.41276       -9.68146
C         -2.35302       -1.14608       -7.56835
F         -1.78435        0.00123       -7.96144
C         -2.12136       -1.60981       -6.28074
C         -2.70672       -2.80668       -5.85195
C         -3.55785       -3.54817       -6.73114
C         -4.15920       -4.75304       -6.28879
C         -3.89782       -5.21322       -5.00382
C         -3.07018       -4.44444       -4.16830
C         -2.46241       -3.26782       -4.55950
C         -2.99499       -5.03047       -2.82170
O         -2.20141       -4.73525       -1.95590
C         -4.05656       -6.08586       -2.80621
C         -4.28927       -6.42201       -4.22538
C         -4.47964       -7.66364       -4.72875
C         -4.39420       -8.80253       -3.87244
N         -4.26423       -9.70031       -3.14787
C         -4.60378       -7.91778       -6.12432
N         -4.72772       -8.10461       -7.26286
C         -4.81527       -6.38538       -1.73407
C         -4.65679       -5.69288       -0.49988
S         -5.51348       -4.19482       -0.21992
C         -4.66955       -3.86999        1.25486
C         -3.80941       -4.89435        1.52604
C         -3.89483       -5.94764        0.60597
C         -3.02294       -6.96766        1.04783
C         -2.35933       -6.59646        2.17219
C         -2.80947       -5.18213        2.51972
O         -2.41021       -4.46017        3.41472
C         -1.36328       -7.34769        2.90321
C         -0.28543       -7.98541        2.37207
N          0.04846       -8.04070        0.96816
O         -0.19437       -7.05748        0.26160
O          0.59503       -9.07967        0.57334
C          0.56275       -8.58659        3.37437
C          0.05298       -8.30414        4.57869
C         -1.12679       -7.45360        4.38705
C         -1.83004       -6.90366        5.40173
C         -3.26114       -6.59657        5.32720
C         -3.65048       -6.14461        6.52296
C         -2.49359       -6.10864        7.39822
N         -2.56927       -5.55184        8.73690
O         -1.84286       -6.01920        9.62405
O         -3.41182       -4.66192        8.92043
C         -1.36192       -6.53605        6.77875
C         -0.01625       -6.46504        7.33863
C          1.16002       -6.39377        6.68796
C          2.42277       -6.34497        7.35516
S          2.54718       -6.01167        9.02709
C          4.25164       -6.14132        9.07012
C          4.72100       -6.35781        7.78828
C          3.69532       -6.48645        6.83691
O          3.92717       -6.70786        5.53354
C          5.20547       -6.72503        5.10495
O          5.47560       -6.87328        3.92007
C          6.35380       -6.55807        6.15994
O          7.52238       -6.55944        5.79265
O          6.02155       -6.43363        7.46124
C          4.94674       -5.94392       10.32652
S          6.49254       -5.19305       10.34552
C          6.57754       -5.22493       12.04241
C          5.46214       -5.79541       12.61211
C          4.50942       -6.22242       11.62449
C          3.18772       -6.83261       12.04285
C          3.12288       -7.26139       13.52218
C          1.70687       -7.51647       13.88128
N          0.59757       -7.70817       14.14877
C          3.75471       -6.18366       14.42917
C          3.67035       -6.56088       15.84896
N          3.63473       -6.87053       16.97017
C          5.24169       -5.98418       14.07927
H         -4.39661       -3.57975       -8.74208
H         -1.48050       -1.02654       -5.62377
H         -4.82054       -5.29530       -6.96119
H         -1.83009       -2.72919       -3.85930
H         -5.67243       -7.04705       -1.81550
H         -4.84320       -2.95929        1.81301
H         -2.91055       -7.91019        0.52863
H          1.43235       -9.19138        3.16370
H          0.41565       -8.69415        5.51770
H         -3.92042       -6.78175        4.50159
H         -4.64766       -5.86175        6.82692
H          0.00819       -6.42205        8.42309
H          1.20413       -6.38230        5.60600
H          7.44690       -4.81970       12.54292
H          2.96449       -7.70553       11.41680
H          2.40452       -6.08342       11.86391
H          3.68192       -8.20038       13.63725
H          3.22124       -5.23312       14.28612
H          5.82607       -6.86011       14.39429
H          5.64004       -5.12250       14.63010
