90

C         -4.16845        1.30952       -4.83954
C         -3.92034        1.24985       -6.20951
F         -3.62723        2.37709       -6.87192
C         -3.97429        0.03985       -6.88561
F         -3.71807       -0.01348       -8.19964
C         -4.29867       -1.12958       -6.20938
C         -4.57580       -1.08991       -4.83700
C         -4.49256        0.14434       -4.12541
C         -4.73092        0.17855       -2.73055
C         -5.08164       -0.98631       -2.05494
C         -5.17820       -2.16776       -2.79817
C         -4.92997       -2.25552       -4.15684
C         -5.50255       -3.30819       -1.93500
O         -5.79240       -4.41453       -2.33391
C         -5.40079       -2.79310       -0.52890
C         -5.36950       -1.30996       -0.62254
C         -5.68675       -0.42250        0.35537
C         -5.71817        0.98638        0.14643
N         -5.73964        2.13233       -0.03275
C         -6.07810       -0.83627        1.66144
N         -6.39380       -1.18033        2.72091
C         -5.15950       -3.59942        0.51910
C         -5.06442       -5.04186        0.50494
C         -3.96196       -5.71885        0.89718
C         -4.21310       -7.16224        0.75759
C         -5.49705       -7.25333        0.22549
C         -6.03894       -6.03306        0.09087
C         -6.19358       -8.52009       -0.24416
N         -6.77141       -9.57097       -0.63377
C         -3.57807       -8.26119        1.16731
C         -3.78646       -9.69103        0.96470
C         -2.94823      -10.36027        1.78707
C         -2.17706       -9.38533        2.53375
C         -2.57672       -8.17407        2.13835
C         -1.91556       -6.86380        2.53390
N         -1.36707       -5.77682        2.86203
C         -2.89741      -11.77527        1.80717
S         -1.45599      -12.59591        2.26697
C         -2.22201      -14.11889        2.02910
C         -3.52523      -13.91598        1.59978
N         -3.88760      -12.57372        1.48374
C         -4.49684      -14.94839        1.24016
O         -4.19992      -16.03633        0.76184
O         -5.76799      -14.49393        1.43407
C         -6.81992      -15.16369        0.74492
C         -1.48155      -15.29812        2.28643
C         -1.45767      -15.81098        3.52574
C         -0.71230      -17.03558        3.81835
C          0.60848      -17.05620        4.29949
C          1.29929      -18.29039        4.56001
N          2.55749      -18.23012        5.06005
C          3.15317      -17.02421        5.24956
C          2.48239      -15.85734        5.00055
N          1.20665      -15.86592        4.52967
C          3.05296      -14.56256        5.23991
N          3.52415      -13.52494        5.45157
C          4.51567      -17.06714        5.69445
N          5.62265      -17.08523        6.04183
C          0.70157      -19.55718        4.32691
C         -0.64166      -19.56220        3.83041
C         -1.36377      -18.27203        3.59815
N         -2.63340      -18.43932        3.19239
S         -2.88985      -20.06330        3.05209
N         -1.40679      -20.62612        3.52023
C          1.38028      -20.83936        4.61819
S          0.52672      -22.07836        5.46376
C          1.85562      -23.14348        5.45964
C          1.76494      -24.48038        6.01700
O          2.70622      -25.25026        6.15228
O          0.50308      -24.82557        6.37885
C          2.96845      -22.54881        4.90036
C          2.68312      -21.25179        4.39526
O          3.58685      -20.48181        3.75803
H         -4.11212        2.27724       -4.34734
H         -4.33298       -2.06174       -6.76788
H         -4.61617        1.12839       -2.21567
H         -4.99947       -3.21677       -4.66077
H         -4.92468       -3.18109        1.49610
H         -3.05501       -5.21860        1.18614
H         -7.00534       -5.79912       -0.33098
H         -4.42968      -10.17980        0.25048
H         -1.38884       -9.61573        3.23318
H         -7.63210      -15.36345        1.44912
H         -6.51378      -16.09923        0.27119
H         -7.19104      -14.47692       -0.02143
H         -0.94423      -15.75550        1.46016
H         -1.99999      -15.36497        4.35511
H         -0.14037      -24.11689        6.17838
H          3.92814      -23.04835        4.84043
H          4.47685      -20.87082        3.83171
