111

C          0.57193        0.62386       -2.93510
C          1.53564        0.21653       -3.85490
F          2.58907        1.00925       -4.09405
C          1.41661       -0.99931       -4.51276
F          2.35819       -1.39424       -5.38004
C          0.32431       -1.82431       -4.27612
C         -0.66233       -1.43401       -3.36256
C         -0.53688       -0.19346       -2.66391
C         -1.50189        0.18002       -1.70072
C         -2.56848       -0.67021       -1.43728
C         -2.65617       -1.87612       -2.14487
C         -1.74885       -2.27111       -3.10919
C         -3.74347       -2.70805       -1.61868
O         -4.20750       -3.68958       -2.15573
C         -4.14422       -2.05058       -0.33391
C         -3.66976       -0.65069       -0.43336
C         -4.23809        0.45429        0.10836
C         -3.80227        1.77210       -0.21754
N         -3.44328        2.83832       -0.50304
C         -5.37194        0.36903        0.95762
N         -6.30305        0.28334        1.65622
C         -4.58402       -2.74257        0.73150
C         -4.77016       -4.16389        0.72081
S         -3.50589       -5.20479        1.25001
C         -4.47267       -6.63627        1.14998
C         -5.75870       -6.30041        0.72018
C         -5.86105       -4.90761        0.30059
C         -7.02173       -4.34923       -0.49474
C         -8.34562       -5.00996       -0.18478
S         -8.22937       -6.76407       -0.44478
O         -9.47937       -7.34915        0.00530
O         -7.76150       -7.00136       -1.79742
C         -6.94765       -7.22570        0.71866
C         -3.89744       -7.88925        1.53759
N         -3.24568       -8.79522        0.68364
C         -3.02006       -8.67581       -0.73955
C         -4.13869       -9.28920       -1.56515
C         -2.76474       -9.92355        1.38285
O         -2.17392      -10.90589        0.98427
C         -3.13770       -9.62015        2.76652
C         -3.85313       -8.37222        2.78895
C         -4.23539       -8.13424        4.19654
O         -4.94223       -7.23116        4.59386
N         -3.62210       -9.20731        4.89786
C         -3.70796       -9.41010        6.34179
C         -3.65243       -8.13412        7.17279
C         -3.03396      -10.10435        4.00292
C         -2.38050      -11.33388        4.34679
C         -2.96290      -12.38544        4.94826
C         -2.27482      -13.61435        5.19984
S         -0.64842      -13.87944        4.71694
C         -0.57077      -15.45051        5.39583
C         -1.78578      -15.78354        5.96885
C         -2.76060      -14.74389        5.83588
C         -2.04327      -17.01689        6.65180
N         -2.24617      -18.02506        7.18979
C          0.67761      -16.12591        5.28478
C          0.76349      -17.45161        5.11993
C          2.03628      -18.11431        5.00825
C          2.41500      -18.94449        4.03021
C          3.59802      -19.81481        4.31080
O          4.45198      -19.67200        5.16025
C          3.47918      -20.94196        3.37836
C          4.31774      -22.04252        3.34227
C          4.06531      -23.02276        2.38127
C          2.94249      -22.88916        1.50971
C          2.71516      -23.86914        0.53440
C          3.58378      -24.94891        0.41520
C          4.67059      -25.07930        1.26865
C          4.91354      -24.12988        2.25461
F          5.50517      -26.11956        1.14327
F          3.36596      -25.85967       -0.54273
C          2.09029      -21.77182        1.61038
C          2.37879      -20.76783        2.52296
C          1.79488      -19.41826        2.78450
C          1.07422      -18.69497        1.89136
C          0.90759      -17.28339        1.99833
N          0.80124      -16.12826        2.00552
C          0.53428      -19.25125        0.69600
N          0.08133      -19.71352       -0.26746
H          0.70809        1.57920       -2.43474
H          0.26525       -2.77429       -4.80120
H         -1.36222        1.10547       -1.14835
H         -1.86949       -3.23252       -3.60172
H         -4.73935       -2.25469        1.69176
H         -6.78594       -4.49352       -1.55835
H         -7.11988       -3.26804       -0.34652
H         -9.13892       -4.63124       -0.83745
H         -8.64355       -4.84990        0.85621
H         -6.68600       -8.26818        0.52909
H         -7.41973       -7.15813        1.70761
H         -2.08785       -9.20585       -0.98086
H         -2.86679       -7.62636       -1.00070
H         -4.38606      -10.30515       -1.23674
H         -3.84798       -9.33706       -2.61991
H         -5.04368       -8.68137       -1.49009
H         -2.87303      -10.04288        6.66965
H         -4.63747       -9.95105        6.54700
H         -2.67629       -7.64794        7.07683
H         -3.81894       -8.36245        8.23058
H         -4.41897       -7.41379        6.88140
H         -1.35357      -11.38860        3.98779
H         -4.00586      -12.32579        5.25126
H         -3.77255      -14.81909        6.21996
H          1.58421      -15.52061        5.25348
H         -0.11425      -18.09024        5.07382
H          2.68223      -17.99032        5.88121
H          5.15220      -22.11158        4.03550
H          1.87932      -23.79649       -0.15709
H          5.77607      -24.25916        2.90300
H          1.23173      -21.71621        0.94876
