132

C         -2.71319        2.69459        0.38565
C         -1.32573        2.84743        0.35828
F         -0.80294        4.07343        0.22148
C         -0.48812        1.74699        0.46868
F          0.84108        1.88984        0.37825
C         -1.01894        0.48736        0.69867
C         -2.40605        0.33026        0.81625
C         -3.28605        1.42591        0.57586
C         -4.69172        1.21057        0.51852
C         -5.20571       -0.05920        0.75740
C         -4.30643       -1.05066        1.16152
C         -2.93115       -0.90365        1.17332
C         -5.00001       -2.31721        1.37834
O         -4.57897       -3.25197        2.02674
C         -6.28587       -2.17971        0.62658
C         -6.54713       -0.71545        0.59143
C         -7.75312       -0.10630        0.53735
C         -7.89413        1.30619        0.59322
N         -7.99461        2.46557        0.64289
C         -8.96665       -0.85423        0.48685
N         -9.94658       -1.47295        0.44455
C         -6.82462       -3.18482       -0.09743
C         -6.21001       -4.48260       -0.21647
S         -7.18913       -5.90374       -0.30501
C         -5.83636       -6.96003       -0.15108
C         -4.66775       -6.22966       -0.02387
C         -4.87632       -4.85952       -0.35621
C         -3.75186       -3.99104       -0.66655
O         -3.87696       -2.89899       -1.21109
C         -2.40243       -4.50397       -0.31898
C         -1.30221       -3.65985       -0.50703
C         -0.01144       -4.12850       -0.27871
C          0.20486       -5.44954        0.13103
C          1.61409       -5.98729        0.20978
C          2.30143       -5.98853       -1.15479
C         -0.90166       -6.26931        0.39860
C         -2.20591       -5.80847        0.14934
C         -3.34444       -6.75406        0.29462
O         -3.14315       -7.89677        0.68815
C         -6.00199       -8.36200       -0.24040
N         -6.21188       -9.25544        0.80151
C         -6.39730       -8.93993        2.20333
C         -5.19114       -8.32399        2.89435
C         -6.23916      -10.58577        0.32772
O         -6.41757      -11.62674        0.92561
C         -5.98311      -10.43038       -1.11340
C         -5.85523       -9.03156       -1.38414
C         -5.56731       -8.85835       -2.81141
O         -5.45339       -7.79145       -3.37828
N         -5.47434      -10.19098       -3.28305
C         -5.35109      -10.54238       -4.69809
C         -4.61603       -9.53527       -5.58506
C         -5.77896      -11.10945       -2.25329
C         -5.73174      -12.53338       -2.38300
C         -6.71867      -13.39669       -2.06770
C         -6.56293      -14.81958       -2.21583
S         -5.56178      -15.42989       -3.48639
C         -5.72725      -17.05547       -3.01900
C         -6.67567      -17.16718       -2.01543
C         -7.12930      -15.88816       -1.52146
C         -8.06651      -15.82197       -0.39255
O         -8.70251      -14.82254       -0.08660
C         -8.21452      -17.08689        0.39683
C         -8.70249      -17.03797        1.71027
C         -8.78130      -18.20771        2.48157
C         -8.42583      -19.44926        1.93768
C         -8.46354      -20.70941        2.76948
C         -7.13200      -20.98042        3.45823
C         -7.97194      -19.50082        0.61479
C         -7.83014      -18.32467       -0.13869
C         -7.16416      -18.42283       -1.46084
O         -6.99454      -19.51031       -1.99691
C         -4.99179      -18.05865       -3.71801
C         -3.80082      -18.51230       -3.30488
C         -3.30741      -19.85925       -3.77186
O         -3.53000      -20.41310       -4.82571
C         -2.54405      -20.39856       -2.61743
C         -1.95324      -21.64080       -2.48372
C         -1.40432      -21.97418       -1.23299
C         -1.55533      -21.07989       -0.12585
C         -1.10736      -21.46047        1.14422
C         -0.44916      -22.67150        1.31143
C         -0.22477      -23.50645        0.22556
C         -0.70787      -23.17572       -1.03867
F          0.46161      -24.64561        0.38683
F         -0.01845      -23.01684        2.53216
C         -2.11696      -19.81117       -0.31241
C         -2.53264      -19.45228       -1.58013
C         -2.96237      -18.16288       -2.15891
C         -2.26311      -17.01692       -1.95692
C         -2.25669      -15.95694       -2.91055
N         -2.16420      -15.10541       -3.69663
C         -1.30161      -16.88783       -0.90340
N         -0.52405      -16.81482       -0.04706
H         -3.33225        3.58044        0.27321
H         -0.34144       -0.35819        0.78560
H         -5.33152        2.04255        0.23787
H         -2.29959       -1.75482        1.40438
H         -7.72002       -3.02521       -0.69305
H         -1.44053       -2.64379       -0.87042
H          0.83242       -3.46755       -0.46740
H          1.61102       -7.00977        0.60514
H          2.19034       -5.37549        0.91275
H          1.76742       -6.62535       -1.86900
H          3.32589       -6.36212       -1.06420
H          2.35479       -4.98241       -1.58546
H         -0.75084       -7.28816        0.75613
H         -6.63716       -9.87066        2.72979
H         -7.26823       -8.28372        2.29553
H         -4.30003       -8.94877        2.77675
H         -5.38422       -8.20780        3.96489
H         -4.97151       -7.32632        2.51098
H         -6.36753      -10.67417       -5.08467
H         -4.83084      -11.50350       -4.78441
H         -5.00644       -8.51953       -5.49324
H         -4.73129       -9.80586       -6.64029
H         -3.54601       -9.50881       -5.35565
H         -4.76357      -12.89645       -2.72690
H         -7.67047      -13.03039       -1.68289
H         -8.98554      -16.08529        2.15853
H         -9.11400      -18.14179        3.51719
H         -8.72250      -21.56238        2.12961
H         -9.26025      -20.63782        3.51881
H         -6.31985      -21.09398        2.73154
H         -7.18976      -21.90363        4.04424
H         -6.86221      -20.16478        4.13743
H         -7.68716      -20.45962        0.18084
H         -5.52022      -18.58138       -4.51637
H         -1.92250      -22.32466       -3.32798
H         -1.24899      -20.82044        2.01148
H         -0.51714      -23.85779       -1.86271
H         -2.19075      -19.11514        0.51913
