116

C        -18.21573        0.61034        0.16239
C        -19.21790        0.42783        1.11389
F        -20.37967        1.08138        0.97644
C        -19.02622       -0.42890        2.18824
F        -20.00879       -0.63199        3.07621
C        -17.81430       -1.08572        2.35592
C        -16.77979       -0.89300        1.43113
C        -16.98861       -0.06160        0.28692
C        -15.98768        0.04011       -0.70942
C        -14.79966       -0.66350       -0.55759
C        -14.60763       -1.40874        0.61688
C        -15.55872       -1.54262        1.61014
C        -13.36522       -2.18623        0.53408
O        -12.76797       -2.72549        1.43960
C        -13.01231       -2.16775       -0.91506
C        -13.65198       -0.95481       -1.46679
C        -13.20268       -0.18589       -2.49041
C        -12.01334       -0.52582       -3.19790
N        -11.04138       -0.83385       -3.74729
C        -13.82265        1.04326       -2.84585
N        -14.33149        2.05594       -3.11604
C        -12.53478       -3.25755       -1.54460
C        -12.29393       -4.57732       -0.95920
C        -13.21340       -5.41249       -0.39651
N        -14.61766       -5.13659       -0.21063
O        -15.19179       -5.73366        0.70421
O        -15.17603       -4.33808       -0.98780
C        -12.67421       -6.71926       -0.10668
C        -11.39031       -6.73763       -0.47941
C        -11.04587       -5.41799       -1.02406
C         -9.80575       -5.06971       -1.43674
C         -9.36106       -3.70605       -1.73317
C         -8.05481       -3.75226       -2.04346
C         -7.61772       -5.12798       -1.98344
N         -6.28804       -5.56020       -2.36058
O         -5.80095       -6.55267       -1.80244
O         -5.70135       -4.87237       -3.20660
C         -8.61870       -5.95927       -1.62577
C         -8.51350       -7.39917       -1.58040
C         -9.22253       -8.23284       -2.35639
C         -9.04514       -9.63134       -2.28255
S         -8.51606      -10.54325       -0.90077
C         -8.58586      -12.07031       -1.73392
C         -9.02396      -11.81503       -2.98654
C         -9.28811      -10.50516       -3.27843
O         -9.74628      -10.23434       -4.53338
C         -9.76049      -11.51422       -5.05665
C         -9.33536      -12.50476       -4.16593
C         -8.22892      -13.27626       -1.09203
C         -7.59381      -14.23567       -1.78443
C         -7.21899      -15.51854       -1.23929
C         -7.46096      -16.71061       -1.83561
N         -8.04787      -16.88225       -3.14660
O         -7.67532      -17.87315       -3.79003
O         -8.87798      -16.05666       -3.54806
C         -7.10055      -17.81742       -0.98839
C         -6.55918      -17.33281        0.13985
C         -6.53302      -15.86902        0.05769
C         -5.97831      -15.01114        0.94981
C         -5.79567      -13.58448        0.66479
C         -5.41439      -12.96518        1.78258
C         -5.22982      -13.96555        2.80663
N         -4.72419      -13.58585        4.11343
O         -4.36871      -12.40431        4.25178
O         -4.65853      -14.43932        5.00607
C         -5.45684      -15.22634        2.34380
C         -5.07230      -16.45401        3.02176
C         -5.79843      -17.47571        3.50103
C         -7.22960      -17.66007        3.44257
C         -8.00442      -18.02696        4.46898
C         -9.44246      -18.35846        4.26196
O        -10.09324      -18.24562        3.24499
C         -9.90320      -18.89936        5.54921
C        -11.21323      -19.18858        5.88044
C        -11.46732      -19.64085        7.17686
C        -10.37937      -19.89751        8.06937
C        -10.65244      -20.40565        9.34539
C        -11.96966      -20.57877        9.75896
C        -13.02484      -20.26410        8.91370
C        -12.78433      -19.81619        7.62019
F        -14.28902      -20.37928        9.34142
F        -12.21095      -21.03099       10.99689
C         -9.05746      -19.58868        7.69290
C         -8.83145      -19.01546        6.45328
C         -7.66998      -18.28036        5.87158
C         -6.97753      -17.41261        6.65807
C         -7.04254      -16.01877        6.34796
N         -7.27466      -14.89866        6.11560
C         -6.44927      -17.78758        7.92127
N         -5.99764      -18.14253        8.92658
H        -18.41512        1.27523       -0.67401
H        -17.69869       -1.75858        3.20188
H        -16.19843        0.61407       -1.60842
H        -15.37017       -2.19705        2.45689
H        -12.42843       -3.25577       -2.62845
H        -13.22340       -7.53918        0.33182
H        -10.74349       -7.58368       -0.32766
H         -9.93463       -2.79913       -1.65118
H         -7.41194       -2.91640       -2.27737
H         -7.76024       -7.78325       -0.89399
H         -9.94642       -7.84923       -3.07279
H        -10.10162      -11.57371       -6.08055
H         -9.27676      -13.56544       -4.36552
H         -8.44133      -13.38036       -0.03073
H         -7.37405      -14.09264       -2.84143
H         -7.27927      -18.85388       -1.23205
H         -6.19098      -17.95548        0.93216
H         -5.87269      -13.07952       -0.28227
H         -5.16908      -11.91673        1.87291
H         -3.99594      -16.50784        3.20945
H         -5.24751      -18.28016        3.99506
H         -7.70674      -17.58674        2.46967
H        -12.00845      -19.01136        5.16053
H         -9.85372      -20.64590       10.04201
H        -13.63328      -19.57881        6.98425
H         -8.24738      -19.74523        8.40034
