121

C        -11.59219        0.88684       -9.49618
C        -12.38469        1.95563       -9.06344
F        -12.89197        2.79547       -9.97104
C        -12.65987        2.13675       -7.71371
F        -13.45388        3.13825       -7.30850
C        -12.12645        1.27978       -6.77310
C        -11.32836        0.21579       -7.18544
C        -11.06223       -0.02243       -8.57220
C        -10.31748       -1.17044       -8.97566
C         -9.86686       -2.05944       -8.01044
C        -10.13800       -1.74157       -6.67482
C        -10.82700       -0.63675       -6.22808
C         -9.73610       -2.80625       -5.78503
O         -9.60321       -2.64625       -4.59280
C         -9.49868       -3.98498       -6.66751
C         -9.22477       -3.41093       -8.01576
C         -8.41609       -3.93093       -8.97394
C         -8.06980       -3.19300      -10.14218
N         -7.77429       -2.56704      -11.07395
C         -7.78162       -5.19739       -8.81229
N         -7.28067       -6.23216       -8.65863
C         -9.85073       -5.24519       -6.35751
C        -10.51904       -5.77057       -5.14865
C        -11.80968       -6.20223       -5.13404
N        -12.75632       -5.99038       -6.18938
O        -13.67506       -6.82077       -6.30392
O        -12.63871       -4.99086       -6.92579
C        -12.06055       -7.09574       -4.02540
C        -10.91932       -7.27921       -3.34919
C         -9.89651       -6.41568       -3.94742
C         -8.68618       -6.19864       -3.39705
C         -7.96094       -4.94809       -3.51255
C         -6.90782       -4.97547       -2.68917
C         -6.84420       -6.28841       -2.10185
N         -5.69334       -6.73583       -1.35397
O         -5.38667       -7.93434       -1.37852
O         -5.05556       -5.85896       -0.75303
C         -7.89312       -7.05419       -2.47414
C         -8.01256       -8.47517       -2.29579
C         -8.77800       -9.11248       -1.39992
C         -8.85942      -10.54328       -1.43834
N         -8.47840      -11.37570       -0.39392
C         -7.98676      -10.94947        0.90154
C         -9.11201      -10.69331        1.89070
C         -8.53572      -12.73508       -0.77376
O         -8.26597      -13.73677       -0.14491
C         -8.98608      -12.66524       -2.17914
C         -9.19622      -11.28658       -2.49617
C         -9.62221      -11.19924       -3.89768
O         -9.88777      -10.18783       -4.51469
N         -9.62500      -12.55539       -4.31636
C         -9.94341      -12.85327       -5.70090
C        -10.94462      -13.97103       -5.95109
C         -9.19808      -13.40141       -3.27630
C         -9.02226      -14.83176       -3.30315
C         -8.64841      -15.57825       -4.35072
C         -8.56818      -17.00575       -4.30430
C         -8.87148      -17.91206       -5.32945
C         -9.22692      -17.51023       -6.65662
N         -9.46104      -17.22338       -7.75559
C         -8.62568      -19.22464       -4.89762
C         -8.02007      -19.31915       -3.70246
S         -7.92900      -17.85666       -2.90494
S         -7.46715      -20.88055       -3.35067
C         -8.06269      -21.40969       -4.84376
C         -8.75082      -20.46134       -5.50260
C         -9.51705      -20.94646       -6.56812
C        -10.68858      -20.28090       -7.04418
N        -11.65169      -19.74058       -7.39763
C         -9.07042      -22.21734       -6.95634
S         -8.01167      -22.85679       -5.67061
C         -9.39123      -23.12625       -8.02322
C        -10.05320      -22.84384       -9.15642
C        -10.75833      -23.98286       -9.85288
O        -10.42369      -25.14582       -9.90773
C        -12.02916      -23.38837      -10.33639
C        -13.14461      -24.04697      -10.81936
C        -14.32485      -23.30261      -10.97937
C        -14.36528      -21.93014      -10.57609
C        -15.57429      -21.22559      -10.62930
C        -16.71087      -21.83786      -11.14194
C        -16.65940      -23.14700      -11.60043
C        -15.48329      -23.88724      -11.50937
F        -17.74934      -23.71484      -12.13389
F        -17.85655      -21.14573      -11.20032
C        -13.19982      -21.28729      -10.13738
C        -12.02167      -22.00894      -10.08619
C        -10.64561      -21.63326       -9.71072
C        -10.01342      -20.50147      -10.10497
C         -8.60349      -20.36028       -9.96157
N         -7.45206      -20.28338       -9.83823
C        -10.70681      -19.43444      -10.75016
N        -11.30049      -18.59046      -11.28124
H        -11.41347        0.77784      -10.56124
H        -12.36455        1.43537       -5.71753
H        -10.16804       -1.35938      -10.03616
H        -11.00851       -0.50750       -5.16489
H         -9.84326       -5.98815       -7.15370
H        -13.01538       -7.55717       -3.80724
H        -10.83499       -7.86509       -2.44927
H         -8.28645       -4.06369       -3.99715
H         -6.24665       -4.14874       -2.47615
H         -7.41079       -9.05136       -3.00208
H         -9.37174       -8.58119       -0.66310
H         -7.36685      -10.05358        0.78420
H         -7.33910      -11.73937        1.29836
H         -9.66600       -9.78545        1.63073
H         -8.70628      -10.56188        2.89904
H         -9.82281      -11.52550        1.91122
H         -9.00333      -13.03581       -6.23347
H        -10.36281      -11.94476       -6.15191
H        -10.43697      -14.86195       -6.32727
H        -11.64422      -13.68077       -6.74261
H        -11.52029      -14.24114       -5.06276
H         -9.18235      -15.30897       -2.33461
H         -8.43555      -15.10685       -5.30464
H         -9.15132      -24.17770       -7.84345
H        -13.10148      -25.11196      -11.03033
H        -15.64620      -20.19695      -10.28412
H        -15.48618      -24.91362      -11.86555
H        -13.23198      -20.24560       -9.82369
