117

C         -9.79363        0.36476        1.08493
C        -11.15533        0.23359        1.34850
F        -11.88837        1.33301        1.56991
C        -11.75384       -1.01773        1.36665
F        -13.07310       -1.13250        1.56919
C        -10.99290       -2.16493        1.17449
C         -9.61263       -2.06125        0.95084
C         -9.00393       -0.77292        0.85387
C         -7.64244       -0.65623        0.49080
C         -6.89759       -1.80391        0.24626
C         -7.50706       -3.05313        0.43316
C         -8.83752       -3.21087        0.78300
C         -6.62587       -4.13324       -0.04188
O         -6.77419       -5.32100        0.14696
C         -5.58590       -3.42941       -0.86018
C         -5.55326       -2.03666       -0.35973
C         -4.48869       -1.20033       -0.32171
C         -3.22425       -1.55990       -0.85552
N         -2.18760       -1.82850       -1.32189
C         -4.55402        0.07872        0.30600
N         -4.63281        1.11850        0.81307
C         -5.08839       -3.93295       -2.00361
C         -5.32866       -5.25355       -2.57337
C         -4.36695       -6.18073       -2.82433
N         -2.96740       -6.02136       -2.50935
O         -2.16444       -6.60859       -3.24747
O         -2.66044       -5.35568       -1.51250
C         -4.89383       -7.39882       -3.38979
C         -6.22424       -7.28279       -3.46852
C         -6.60700       -5.96663       -2.93847
C         -7.89109       -5.57099       -2.78093
C         -8.36041       -4.19739       -2.61587
C         -9.67437       -4.23632       -2.33802
C        -10.10296       -5.62109       -2.32440
N        -11.42639       -6.04587       -1.89365
O        -12.19570       -5.14887       -1.51535
O        -11.72071       -7.24763       -1.90163
C         -9.08723       -6.45909       -2.62743
C         -9.17847       -7.90156       -2.61938
C         -8.46127       -8.71447       -1.82907
C         -8.57605      -10.14737       -1.84705
N         -8.30168      -10.95107       -0.73551
C         -8.08884      -10.49919        0.62525
C         -9.39490      -10.42080        1.40329
C         -8.46755      -12.32012       -1.02841
O         -8.36555      -13.29708       -0.31550
C         -8.84801      -12.29988       -2.44557
C         -8.90042      -10.93279       -2.88219
C         -9.30800      -10.93786       -4.30314
O         -9.45463       -9.98010       -5.03513
N         -9.48853      -12.31006       -4.57180
C         -9.91898      -12.79473       -5.86829
C         -8.75408      -13.07644       -6.80189
C         -9.18151      -13.09311       -3.46136
C         -9.25117      -14.52310       -3.46198
C         -8.19390      -15.30194       -3.18896
C         -8.30440      -16.71626       -3.27463
O         -9.47698      -17.39649       -3.04206
C         -9.30534      -18.74718       -3.23782
C         -7.96992      -18.94286       -3.60102
C         -7.33695      -17.65404       -3.60914
C         -5.98728      -17.36434       -3.95818
N         -4.88527      -17.13030       -4.25607
C         -7.26552      -20.19919       -3.95145
F         -8.06444      -21.29098       -3.91762
F         -6.74849      -20.12897       -5.20429
F         -6.22927      -20.43297       -3.11027
C        -10.38953      -19.67496       -3.15431
C        -11.47554      -19.52233       -2.38024
C        -12.66557      -20.40721       -2.60557
O        -12.71460      -21.43419       -3.24834
C        -13.79175      -19.74781       -1.91376
C        -15.07555      -20.24679       -1.76933
C        -15.98074      -19.51428       -0.98971
C        -15.60263      -18.23587       -0.47472
C        -16.51323      -17.51574        0.31179
C        -17.74937      -18.06793        0.63117
C        -18.10626      -19.32083        0.15366
C        -17.24162      -20.03821       -0.66799
F        -19.28346      -19.86140        0.49617
F        -18.58311      -17.38765        1.42958
C        -14.30357      -17.73903       -0.68942
C        -13.37093      -18.54233       -1.32867
C        -11.87941      -18.53211       -1.37434
C        -11.16132      -18.19631       -0.27174
C        -10.05948      -19.01154        0.12740
N         -9.25401      -19.76504        0.48793
C        -11.60468      -17.23763        0.68666
N        -11.98486      -16.44580        1.44176
H         -9.36829        1.36499        1.05930
H        -11.49675       -3.12889        1.18476
H         -7.22519        0.33668        0.34228
H         -9.26957       -4.20684        0.83542
H         -4.43216       -3.31975       -2.62173
H         -4.30141       -8.23725       -3.72385
H         -6.87940       -8.01141       -3.92040
H         -7.77227       -3.30258       -2.73565
H        -10.32252       -3.39139       -2.15330
H         -9.93851       -8.31232       -3.28272
H         -7.71734       -8.28878       -1.15851
H         -7.57568       -9.53363        0.63096
H         -7.42702      -11.21828        1.12118
H        -10.10019       -9.72834        0.93204
H         -9.20953      -10.08023        2.42642
H         -9.87927      -11.40195        1.45570
H        -10.56422      -12.03357       -6.32199
H        -10.52903      -13.69450       -5.73835
H         -8.15714      -12.17490       -6.97314
H         -9.12441      -13.43007       -7.76953
H         -8.09229      -13.84451       -6.38943
H        -10.21024      -14.95357       -3.73908
H         -7.22623      -14.86731       -2.94551
H        -10.36179      -20.52225       -3.83953
H        -15.33315      -21.21391       -2.19407
H        -16.25999      -16.54207        0.72438
H        -17.55182      -21.02061       -1.01441
H        -14.03047      -16.77095       -0.27763
