115

C          1.21932        0.93208        1.53610
C          2.58574        0.66332        1.47592
F          3.45574        1.58148        1.91475
C          3.04193       -0.54379        0.96706
F          4.35505       -0.80591        0.92761
C          2.14396       -1.49612        0.49222
C          0.76446       -1.24338        0.52197
C          0.29095       -0.01504        1.07297
C         -1.10273        0.22634        1.15211
C         -1.99634       -0.73046        0.67464
C         -1.49907       -1.92044        0.13100
C         -0.14559       -2.19560        0.03624
C         -2.61122       -2.84269       -0.18543
O         -2.56357       -3.82603       -0.89380
C         -3.80629       -2.26060        0.51429
C         -3.48390       -0.82555        0.69655
C         -4.34356        0.21322        0.62577
C         -3.88281        1.56500        0.47956
N         -3.48837        2.64112        0.33721
C         -5.75712        0.02722        0.56196
N         -6.89760       -0.13827        0.54500
C         -4.81304       -3.00308        1.01847
C         -4.96943       -4.47255        0.88962
C         -5.67808       -5.09824       -0.14943
C         -5.84587       -6.53535       -0.21849
N         -6.64126       -7.06142       -1.17215
C         -7.18481       -6.23766       -2.10708
C         -6.95879       -4.88702       -2.08221
N         -6.23067       -4.30614       -1.09168
C         -7.43481       -4.01037       -3.11092
N         -7.81264       -3.33450       -3.97304
C         -7.96389       -6.88120       -3.12000
N         -8.59878       -7.38832       -3.95737
C         -5.20544       -7.42562        0.66490
C         -4.49441       -6.82498        1.74473
C         -4.42943       -5.32219        1.89372
N         -3.83548       -4.93734        3.03773
S         -3.36072       -6.32111        3.82188
N         -3.79540       -7.45796        2.70272
C         -5.25311       -8.89844        0.56281
N         -4.93835       -9.64831       -0.59037
C         -4.40846       -9.17863       -1.85409
C         -2.88938       -9.18366       -1.88164
C         -5.00910      -11.03976       -0.34718
O         -4.77659      -11.97658       -1.08505
C         -5.38161      -11.10162        1.06715
C         -5.54467       -9.75839        1.55452
C         -5.89265       -9.86352        2.98962
O         -6.14800       -8.95533        3.75453
N         -5.81250      -11.25540        3.23753
C         -5.73229      -11.76988        4.59238
C         -7.09021      -12.03678        5.21551
C         -5.54542      -11.96897        2.06503
C         -5.33636      -13.39084        1.97767
C         -6.11354      -14.32644        2.54448
C         -5.81281      -15.71510        2.48055
S         -7.11906      -16.85404        2.50694
C         -6.08741      -18.25320        2.43183
C         -4.78172      -17.82571        2.44291
C         -4.63030      -16.41243        2.45775
C         -3.22430      -16.05841        2.49379
O         -2.74746      -14.93645        2.56237
C         -2.41865      -17.35665        2.44823
C         -3.47875      -18.46178        2.47240
O         -3.24721      -19.65985        2.51403
C         -6.71379      -19.53280        2.39225
C         -6.16873      -20.58948        1.77254
C         -6.84061      -21.86902        1.69297
C         -7.12352      -22.53365        0.56393
C         -7.51626      -23.97714        0.63477
O         -7.93102      -24.59456        1.59239
C         -7.24078      -24.52169       -0.70772
C         -7.44290      -25.82946       -1.11655
C         -7.14276      -26.15628       -2.44408
C         -6.56796      -25.17073       -3.30418
C         -6.26899      -25.50723       -4.63095
C         -6.56427      -26.77796       -5.11234
C         -7.13899      -27.73031       -4.28269
C         -7.41803      -27.43451       -2.95185
F         -7.44251      -28.94426       -4.76119
F         -6.30411      -27.06795       -6.39433
C         -6.34781      -23.86095       -2.83819
C         -6.74725      -23.51625       -1.55678
C         -6.90003      -22.21284       -0.85025
C         -7.17903      -21.04277       -1.47422
C         -7.94261      -20.02376       -0.83493
N         -8.65068      -19.22490       -0.36586
C         -6.89339      -20.80878       -2.84860
N         -6.61809      -20.62417       -3.96277
H          0.90079        1.88635        1.94762
H          2.53954       -2.43223        0.10734
H         -1.45127        1.14362        1.62124
H          0.18592       -3.14680       -0.37108
H         -5.58609       -2.54721        1.63342
H         -4.76537       -8.17988       -2.09326
H         -4.77860       -9.84358       -2.64441
H         -2.48194       -8.52904       -1.10511
H         -2.53108       -8.82903       -2.85330
H         -2.49225      -10.19056       -1.71924
H         -5.21260      -11.02224        5.20476
H         -5.10896      -12.67028        4.61652
H         -7.67545      -11.11608        5.29187
H         -6.96484      -12.44969        6.22171
H         -7.67548      -12.74960        4.63115
H         -4.49046      -13.68165        1.35693
H         -7.02228      -14.03487        3.05986
H         -1.77861      -17.42739        3.32975
H         -1.85320      -17.40654        1.51478
H         -7.71472      -19.62353        2.81364
H         -5.19461      -20.53296        1.29324
H         -7.02684      -22.35069        2.65538
H         -7.85801      -26.55688       -0.42326
H         -5.83266      -24.78297       -5.31433
H         -7.87238      -28.20350       -2.33282
H         -5.90508      -23.13358       -3.51197
