127

C         -7.60824        0.40707        1.72186
C         -7.26584       -0.19263        2.93360
F         -6.96944        0.58010        3.98739
C         -7.23431       -1.57407        3.05451
F         -6.94918       -2.14485        4.23265
C         -7.47903       -2.38000        1.95033
C         -7.75884       -1.79555        0.70621
C         -7.89159       -0.38104        0.59309
C         -8.30818        0.19575       -0.63492
C         -8.51938       -0.61721       -1.74405
C         -8.22287       -1.97194       -1.62362
C         -7.88931       -2.59188       -0.42969
C         -8.39621       -2.66112       -2.90834
O         -7.91201       -3.73264       -3.20954
C         -9.25241       -1.74769       -3.71450
C         -9.07459       -0.39204       -3.12648
C         -9.24884        0.80194       -3.74708
C         -9.64347        0.89992       -5.10951
N         -9.96009        0.99517       -6.22391
C         -9.00295        2.04393       -3.10821
N         -8.80969        3.06359       -2.56345
C        -10.17901       -2.21036       -4.59641
C        -10.37041       -3.59459       -5.06205
C        -10.42693       -3.96438       -6.36696
N        -10.48058       -3.05640       -7.49196
O         -9.94635       -3.43613       -8.54380
O        -11.11545       -2.00326       -7.36250
C        -10.27811       -5.38499       -6.54182
C        -10.17601       -5.95839       -5.33528
C        -10.39529       -4.93080       -4.31223
C        -10.60935       -5.13862       -2.98447
C        -11.01232       -4.04782       -2.09809
C        -10.86338       -4.46087       -0.83950
C        -10.46243       -5.85508       -0.84100
N        -10.15003       -6.47375        0.44263
O        -10.52524       -5.85656        1.45338
O         -9.45989       -7.49349        0.49217
C        -10.43465       -6.37722       -2.09990
C        -10.22830       -7.75191       -2.55883
C        -10.23890       -8.89916       -1.86848
N        -10.00174      -10.20961       -2.25488
C         -9.41853      -10.68101       -3.53034
C         -9.18139      -12.28734       -3.30385
N        -10.34739      -13.06799       -3.79686
C        -10.54973      -12.83048       -5.23808
C        -10.03376      -11.45479       -5.75880
C        -10.75754      -11.12355       -7.07451
S        -12.14525      -12.27334       -7.26214
C        -12.03467      -12.93354       -5.58846
N        -10.16924      -10.35994       -4.77561
N         -8.78272      -12.42179       -1.89587
S         -9.56655      -11.23827       -0.99775
C         -8.78039      -13.64954       -1.26861
C         -7.68918      -14.27853       -0.82346
C         -7.75407      -15.47169       -0.05595
S         -6.66543      -16.70771       -0.48988
C         -8.56126      -15.87944        0.99645
C         -9.70918      -15.13150        1.54918
O         -9.97320      -13.95537        1.33464
C        -10.55462      -15.97908        2.37313
C        -11.86894      -15.77744        2.74376
N        -12.26167      -16.86236        3.48355
C        -13.60793      -17.09141        3.98088
C        -14.44202      -17.90398        3.00342
C        -11.20272      -17.72098        3.64899
C        -10.14523      -17.23448        2.90729
C         -8.84943      -17.84778        2.64677
O         -8.42173      -18.81911        3.25625
C         -8.15542      -17.19746        1.51696
C         -7.11539      -17.77109        0.78943
C         -6.55734      -19.09866        0.86581
C         -5.34876      -19.46687        0.40656
C         -5.08097      -20.90416        0.03082
O         -5.61741      -21.90255        0.45896
C         -4.09530      -20.82910       -1.08201
C         -3.59268      -21.85434       -1.86383
C         -2.77762      -21.51081       -2.96003
C         -2.58316      -20.13486       -3.29897
C         -1.85488      -19.79192       -4.44489
C         -1.25298      -20.78526       -5.20531
C         -1.37350      -22.11896       -4.84108
C         -2.14325      -22.48994       -3.73963
F         -0.74443      -23.06610       -5.54977
F         -0.53783      -20.43879       -6.28411
C         -3.08509      -19.12652       -2.46851
C         -3.75924      -19.48945       -1.31707
C         -4.24409      -18.70574       -0.16918
C         -3.55218      -17.70470        0.42610
C         -3.88454      -17.24438        1.73378
N         -4.13002      -16.88878        2.81027
C         -2.38281      -17.14369       -0.16255
N         -1.44010      -16.70336       -0.67646
H         -7.63352        1.49289        1.67525
H         -7.44109       -3.45961        2.07586
H         -8.46448        1.26993       -0.66546
H         -7.75681       -3.66951       -0.39246
H        -10.87298       -1.50505       -5.03953
H        -10.16286       -5.87906       -7.49511
H         -9.96366       -7.00269       -5.23071
H        -11.37082       -3.07358       -2.38020
H        -11.06141       -3.88169        0.05076
H        -10.09308       -7.88729       -3.61546
H        -10.47181       -8.87462       -0.81284
H         -8.41628      -10.23884       -3.63551
H         -8.31430      -12.59284       -3.90665
H        -11.13467      -12.69827       -3.26044
H        -10.00232      -13.62195       -5.76898
H         -8.96211      -11.54239       -5.98835
H        -10.08063      -11.22548       -7.92853
H        -11.14475      -10.09932       -7.08253
H        -12.39638      -13.96555       -5.54584
H        -12.65849      -12.31831       -4.93130
H        -11.14391      -10.30787       -4.47868
H         -9.78343      -14.03403       -1.09271
H         -6.71350      -13.85925       -1.05886
H        -12.55332      -14.97101        2.50616
H        -14.06978      -16.11487        4.16261
H        -13.52096      -17.60986        4.94130
H        -14.57467      -17.36836        2.05700
H        -15.43262      -18.10490        3.42252
H        -13.96594      -18.86408        2.77642
H        -11.29875      -18.63180        4.22689
H         -7.23546      -19.88320        1.20607
H         -3.82598      -22.88822       -1.62356
H         -1.72674      -18.75552       -4.74747
H         -2.21804      -23.54513       -3.49148
H         -2.92195      -18.08065       -2.71665
