113

C          1.04642       -0.84529       -4.79675
C          1.63155       -1.50535       -5.87837
F          2.74845       -1.00751       -6.42675
C          1.07530       -2.67283       -6.37979
F          1.65818       -3.32099       -7.39746
C         -0.09277       -3.18483       -5.83095
C         -0.70837       -2.53111       -4.75472
C         -0.12101       -1.35364       -4.19720
C         -0.70583       -0.74477       -3.05468
C         -1.85271       -1.29837       -2.48917
C         -2.42780       -2.41958       -3.10698
C         -1.88930       -3.04520       -4.21658
C         -3.59724       -2.88962       -2.34383
O         -4.51094       -3.56799       -2.76146
C         -3.45372       -2.25080       -1.00232
C         -2.64553       -1.02621       -1.24813
C         -2.75827        0.15492       -0.59736
C         -2.06423        1.32586       -1.01660
N         -1.49883        2.27320       -1.37553
C         -3.65836        0.31817        0.49577
N         -4.38554        0.42803        1.39300
C         -3.73902       -2.86246        0.16694
C         -4.23977       -4.24780        0.37841
C         -5.58977       -4.63203        0.50403
C         -5.99731       -6.00848        0.74624
N         -7.30448       -6.31605        0.87979
C         -8.21737       -5.31173        0.79107
C         -7.83319       -4.01281        0.54289
N         -6.52382       -3.66600        0.40672
C         -8.77849       -2.95133        0.36231
N         -9.56491       -2.11387        0.19667
C         -9.58896       -5.69863        0.95548
N        -10.70421       -5.99487        1.08403
C         -5.06950       -7.05790        0.84910
C         -3.69681       -6.69234        0.86358
C         -3.27477       -5.26608        0.62282
N         -1.93954       -5.10657        0.66929
S         -1.28397       -6.58581        1.02915
N         -2.65228       -7.51448        1.06946
C         -5.39023       -8.49038        0.87669
N         -5.36113       -9.29018       -0.27550
C         -5.08532       -8.90356       -1.64094
C         -3.61837       -9.07125       -2.00953
C         -5.54707      -10.64847        0.02187
O         -5.54176      -11.58570       -0.75006
C         -5.69365      -10.65191        1.48615
C         -5.64078       -9.27866        1.93607
C         -5.78639       -9.30162        3.40550
O         -5.83463       -8.33723        4.14255
N         -5.82918      -10.68569        3.70586
C         -5.87282      -11.17581        5.07664
C         -7.28660      -11.38411        5.59795
C         -5.77215      -11.46905        2.54215
C         -5.74456      -12.91465        2.56287
C         -5.59177      -13.71777        1.49482
C         -5.57183      -15.18252        1.48717
C         -4.88652      -16.01207        0.56188
N         -4.88067      -17.39390        0.57913
C         -5.56959      -18.10588        1.52017
C         -6.30868      -17.37495        2.45308
C         -6.31440      -15.92604        2.43270
N         -7.12876      -15.51518        3.42017
O         -7.59394      -16.65310        4.04322
N         -7.08830      -17.79654        3.45570
C         -4.09272      -15.44247       -0.55518
C         -2.99742      -16.03707       -1.06163
C         -2.25715      -15.48082       -2.16466
C         -0.96187      -15.14634       -2.26912
C         -0.57846      -14.50432       -3.58046
O         -1.28305      -14.27830       -4.54335
C          0.84655      -14.17747       -3.49192
C          1.61324      -13.58037       -4.48722
C          2.98651      -13.41263       -4.26427
C          3.55599      -13.90354       -3.05637
C          4.93647      -13.77654       -2.84202
C          5.73790      -13.15615       -3.79289
C          5.18298      -12.66076       -4.96377
C          3.81765      -12.78751       -5.20914
F          5.96056      -12.05671       -5.87239
F          7.05250      -13.03850       -3.56346
C          2.73846      -14.50847       -2.08173
C          1.36296      -14.59638       -2.26670
C          0.25451      -15.13843       -1.41729
C          0.39126      -15.44559       -0.09795
C         -0.58563      -16.06725        0.72884
N         -1.27070      -16.59073        1.49288
C          1.58290      -15.14151        0.63367
N          2.53073      -14.87663        1.24855
H          1.52121        0.06273       -4.43361
H         -0.50424       -4.10038       -6.24803
H         -0.21686        0.12554       -2.62108
H         -2.36446       -3.93546       -4.61853
H         -3.44274       -2.39345        1.10251
H         -5.43311       -7.88420       -1.82387
H         -5.66935       -9.56488       -2.29478
H         -2.99494       -8.34644       -1.48373
H         -3.47675       -8.91690       -3.08331
H         -3.24767      -10.07164       -1.75856
H         -5.36700      -10.44586        5.71946
H         -5.29854      -12.10446        5.16071
H         -7.84007      -10.44026        5.62106
H         -7.25716      -11.78261        6.61850
H         -7.84569      -12.09034        4.97627
H         -5.83987      -13.37355        3.54145
H         -5.46320      -13.29896        0.51149
H         -5.51727      -19.18363        1.48330
H         -4.43736      -14.50022       -0.97265
H         -2.66909      -16.99796       -0.67237
H         -2.90019      -15.30356       -3.03394
H          1.14217      -13.26138       -5.41407
H          5.40464      -14.14888       -1.93379
H          3.41947      -12.39185       -6.13984
H          3.23182      -14.90681       -1.20119
