106

C         -5.79838        0.93156        6.21829
C         -5.02359        0.71435        7.35364
F         -4.91108        1.69086        8.26280
C         -4.39151       -0.50320        7.55372
F         -3.66596       -0.71169        8.66073
C         -4.51690       -1.52882        6.61953
C         -5.29943       -1.33995        5.47269
C         -5.95814       -0.08861        5.26877
C         -6.79810        0.10292        4.15423
C         -7.00416       -0.94230        3.26700
C         -6.34847       -2.16088        3.49646
C         -5.48559       -2.38064        4.55737
C         -6.86561       -3.19819        2.58877
O         -6.43991       -4.32512        2.45680
C         -8.07117       -2.58306        1.94274
C         -7.94906       -1.11748        2.12574
C         -8.48406       -0.13857        1.36183
C         -9.31071       -0.43045        0.22562
N         -9.98122       -0.69483       -0.68522
C         -8.22611        1.24637        1.58783
N         -8.01179        2.38294        1.78139
C         -9.15199       -3.30679        1.60088
C         -9.34517       -4.74451        1.75842
C         -9.32589       -5.44918        2.92135
N         -9.11108       -4.88225        4.23367
O         -9.46258       -3.70825        4.43645
O         -8.61776       -5.62417        5.09153
C         -9.68437       -6.83348        2.73340
C         -9.93104       -7.03608        1.43170
C         -9.70444       -5.77261        0.71758
C         -9.82980       -5.60548       -0.61902
C         -9.73627       -4.31793       -1.30891
C        -10.12394       -4.49430       -2.57762
C        -10.40728       -5.89592       -2.77384
N        -10.85807       -6.42139       -4.03926
O        -11.38338       -7.53934       -4.06832
O        -10.73055       -5.68428       -5.02657
C        -10.17110       -6.62847       -1.66269
C        -10.10715       -8.07442       -1.58254
C         -9.17537       -8.81336       -2.21400
C         -9.08799      -10.25163       -2.10297
C         -8.77796      -10.82268       -0.92177
C         -8.88041      -12.25667       -1.00175
O         -8.61935      -12.89731        0.16568
C         -9.13795      -14.19336        0.41179
C         -9.26766      -12.63058       -2.25052
C         -9.34794      -11.36927       -3.05922
C         -9.59448      -11.25527       -4.38726
C         -9.68080      -10.01099       -5.15052
C        -10.03080      -10.32009       -6.41346
O        -10.32471       -9.55295       -7.49535
C        -10.72551       -8.22233       -7.18477
C        -10.10856      -11.74982       -6.55422
C         -9.85330      -12.31544       -5.36459
C         -9.53512      -13.99562       -2.61056
C         -8.77159      -14.71778       -3.44080
C         -8.95419      -16.15022       -3.66211
C        -10.12823      -16.86084       -3.41963
N        -10.25768      -18.20059       -3.57176
C         -9.16972      -18.87797       -3.99652
C         -7.96244      -18.24609       -4.28024
C         -7.86110      -16.87254       -4.12493
C         -9.36008      -20.32135       -4.14168
C         -8.40840      -21.15933       -4.57611
C         -8.62567      -22.58740       -4.70649
C         -8.35006      -23.44690       -3.65317
N         -8.49003      -24.78668       -3.72364
C         -8.91447      -25.29913       -4.90313
C         -9.20324      -24.51225       -6.01394
C         -9.06659      -23.13204       -5.90902
C         -9.06117      -26.75424       -4.98092
C         -9.32043      -27.52140       -3.91377
H         -6.29104        1.89260        6.10447
H         -4.02223       -2.47515        6.81949
H         -7.32813        1.04597        4.05733
H         -5.04146       -3.36306        4.70354
H        -10.06450       -2.80576        1.28163
H         -9.79308       -7.55434        3.53024
H        -10.28748       -7.96725        1.02927
H         -9.42957       -3.37019       -0.91091
H        -10.16782       -3.73991       -3.34863
H        -10.87356       -8.56232       -0.98406
H         -8.41279       -8.34970       -2.83439
H         -8.54929      -10.31163        0.00141
H         -8.78778      -14.50470        1.40162
H         -8.77342      -14.93529       -0.30170
H        -10.23181      -14.16617        0.44134
H         -9.51338       -9.02285       -4.77706
H        -10.85152       -7.67144       -8.12086
H         -9.96438       -7.70250       -6.59728
H        -11.69142       -8.23038       -6.66747
H        -10.33914      -12.25752       -7.47746
H         -9.85714      -13.37612       -5.21466
H        -10.36174      -14.44753       -2.07060
H         -7.93119      -14.25180       -3.95381
H        -11.03494      -16.37104       -3.07633
H         -7.08655      -18.78911       -4.61108
H         -6.91457      -16.38522       -4.34307
H        -10.35127      -20.68569       -3.87246
H         -7.41104      -20.84024       -4.85461
H         -7.98782      -23.07145       -2.69951
H         -9.54569      -24.95389       -6.94288
H         -9.29454      -22.49483       -6.75937
H         -8.96410      -27.20258       -5.96376
H         -9.44092      -27.08875       -2.92362
H         -9.42964      -28.59440       -4.01199
