132

C          2.47657       -0.59496        0.61765
C          3.17616       -0.42671       -0.57851
F          4.41213        0.09079       -0.55086
C          2.60374       -0.78828       -1.78893
F          3.28454       -0.63950       -2.93353
C          1.31420       -1.30045       -1.82848
C          0.58173       -1.45129       -0.64293
C          1.17000       -1.11884        0.61435
C          0.43288       -1.32112        1.81420
C         -0.87588       -1.80323        1.76131
C         -1.41750       -2.07516        0.49848
C         -0.72767       -1.92466       -0.69290
C         -2.78540       -2.59132        0.61051
O         -3.58595       -2.65440       -0.29680
C         -2.96537       -2.93189        2.06052
C         -1.90648       -2.17145        2.78647
C         -1.93869       -1.75177        4.08316
C         -0.93892       -0.90378        4.63804
N         -0.12218       -0.21387        5.08410
C         -3.01716       -2.07962        4.96257
N         -3.89141       -2.36349        5.66334
C         -3.77563       -3.92159        2.47802
C         -4.53703       -4.74772        1.58756
S         -3.99153       -6.38103        1.31929
C         -5.40488       -6.80383        0.42289
C         -5.98736       -5.62547       -0.01426
C         -5.71598       -4.53913        0.88583
C         -6.63756       -3.40062        0.95550
O         -6.41851       -2.36925        1.57657
C         -7.97035       -3.64278        0.29594
C         -9.12212       -2.97033        0.71886
C        -10.36232       -3.24140        0.10973
C        -10.47345       -4.16349       -0.94719
C        -11.81018       -4.39740       -1.62123
C        -12.00747       -5.78429       -2.23274
C         -9.31319       -4.81235       -1.37676
C         -8.09124       -4.59067       -0.72902
C         -6.96383       -5.48126       -1.07081
O         -6.89250       -6.04553       -2.15235
C         -5.80088       -8.15704        0.24135
N         -6.67864       -8.86389        1.09116
C         -7.40086       -8.39074        2.25315
C         -6.53808       -7.97899        3.42800
C         -6.97654      -10.13952        0.57323
O         -7.72487      -10.98795        1.01784
C         -6.18959      -10.19019       -0.66808
C         -5.47829       -8.93624       -0.79538
C         -4.72255       -8.98737       -2.05382
O         -3.96664       -8.15110       -2.49486
N         -5.09466      -10.24576       -2.59366
C         -4.79212      -10.58145       -3.97320
C         -5.83599      -10.00480       -4.92416
C         -5.93926      -10.95326       -1.73611
C         -6.46270      -12.26957       -2.04769
C         -6.99837      -13.11462       -1.16491
C         -7.54105      -14.45026       -1.37020
C         -8.12190      -14.94057       -2.49560
N         -8.36547      -14.20545       -3.71558
O         -8.77965      -13.04196       -3.63926
O         -8.17843      -14.81761       -4.77680
C         -8.43017      -16.34151       -2.39083
C         -8.07314      -16.76900       -1.17298
C         -7.58440      -15.62328       -0.38670
C         -7.28020      -15.67116        0.94183
C         -6.95677      -14.51890        1.79064
C         -6.66685      -14.94368        3.02828
C         -6.82147      -16.37238        3.06469
N         -6.63991      -17.14110        4.27990
O         -7.28609      -18.18367        4.43543
O         -5.86183      -16.66574        5.12151
C         -7.21140      -16.86318        1.86660
C         -7.44317      -18.25997        1.60276
C         -8.66068      -18.76828        1.36120
C         -8.85071      -20.13535        1.00986
S         -7.86071      -21.37969        1.65321
C         -8.64840      -22.60335        0.76297
C         -9.68690      -22.08612        0.00830
C         -9.80276      -20.66048        0.14720
C        -10.85502      -19.86939       -0.58011
C        -11.49691      -20.63744       -1.75029
C        -12.69924      -19.84169       -2.25908
F        -12.61062      -18.53455       -1.92253
F        -12.78017      -19.88536       -3.60432
F        -13.85384      -20.31281       -1.74671
C        -11.85087      -22.08910       -1.30365
C        -12.65775      -22.90831       -2.30723
F        -12.91994      -22.22866       -3.43658
F        -12.01970      -24.04165       -2.67081
F        -13.83991      -23.27492       -1.76486
C        -10.58492      -22.87068       -0.90037
C         -8.16247      -23.93161        0.86847
C         -8.63440      -24.75396        1.81258
H          2.96600       -0.29889        1.54224
H          0.89127       -1.57284       -2.79228
H          0.92495       -1.10325        2.75899
H         -1.21083       -2.18774       -1.63121
H         -3.77513       -4.24042        3.51528
H         -9.07415       -2.25671        1.54007
H        -11.25095       -2.72144        0.46878
H        -11.93527       -3.64131       -2.40533
H        -12.61310       -4.24369       -0.88961
H        -11.28696       -5.98763       -3.03169
H        -13.00531       -5.86625       -2.67569
H        -11.90565       -6.56819       -1.47458
H         -9.34260       -5.52566       -2.19799
H         -8.05436       -9.19862        2.61310
H         -8.06730       -7.58257        1.93718
H         -6.00039       -8.83626        3.84516
H         -7.16150       -7.54544        4.21529
H         -5.80481       -7.22718        3.15620
H         -4.71929      -11.66850       -4.09255
H         -3.81318      -10.16631       -4.22766
H         -6.84920      -10.31941       -4.65137
H         -5.64279      -10.32751       -5.95132
H         -5.81447       -8.90975       -4.90257
H         -6.39834      -12.54840       -3.09373
H         -7.02812      -12.78969       -0.14451
H         -8.84841      -16.93316       -3.19155
H         -8.17467      -17.79174       -0.86820
H         -7.02464      -13.47395        1.56967
H         -6.43746      -14.32508        3.88257
H         -6.55782      -18.89293        1.64612
H         -9.52459      -18.10828        1.32725
H        -10.40744      -18.94873       -0.97638
H        -11.62145      -19.57115        0.14650
H        -10.76171      -20.69906       -2.56489
H        -12.47028      -21.99312       -0.39856
H        -10.00504      -23.13546       -1.79404
H        -10.87963      -23.80451       -0.40590
H         -7.37431      -24.25174        0.19330
H         -9.40044      -24.44342        2.51714
H         -8.23840      -25.75900        1.91310
