129

C         -3.37162        0.08152        1.11776
C         -2.74650       -0.37123        2.27619
F         -2.52464        0.48929        3.27862
C         -2.36839       -1.70038        2.40136
F         -1.79338       -2.13503        3.53046
C         -2.58734       -2.59764        1.36203
C         -3.20239       -2.16408        0.17986
C         -3.62353       -0.80368        0.05910
C         -4.31732       -0.37202       -1.09118
C         -4.58858       -1.27899       -2.10647
C         -4.12986       -2.59866       -1.97180
C         -3.44082       -3.06193       -0.86359
C         -4.68064       -3.44692       -3.03993
O         -4.36533       -4.59051       -3.28458
C         -5.75984       -2.61174       -3.66000
C         -5.44951       -1.20823       -3.32151
C         -5.76434       -0.09902       -4.03365
C         -6.53738       -0.14307       -5.23039
N         -7.19820       -0.13190       -6.18285
C         -5.31228        1.19785       -3.65712
N         -4.94611        2.24805       -3.32680
C         -6.91290       -3.13308       -4.10766
C         -7.24134       -4.53936       -4.27772
C         -7.45112       -5.13927       -5.48173
N         -7.36878       -4.48705       -6.77469
O         -7.61699       -5.18788       -7.76899
O         -7.05890       -3.29331       -6.83106
C         -7.73044       -6.54283       -5.34576
C         -7.65852       -6.86963       -4.05091
C         -7.37056       -5.66675       -3.26990
C         -7.24655       -5.64603       -1.91955
C         -7.07283       -4.43047       -1.11964
C         -6.80740       -4.78603        0.14466
C         -6.86250       -6.22659        0.22937
N         -6.67916       -6.93227        1.47805
O         -6.14714       -8.04919        1.46108
O         -7.02905       -6.33524        2.50657
C         -7.18180       -6.80271       -0.95432
C         -7.37541       -8.22868       -1.15209
C         -8.51767       -8.81326       -1.55037
C         -8.67656      -10.23700       -1.72774
N         -8.55301      -11.16870       -0.69588
C         -8.31327      -10.90888        0.70607
C         -9.59761      -10.68639        1.48539
C         -8.85779      -12.47506       -1.12195
O         -8.91141      -13.51669       -0.49980
C         -9.13349      -12.27256       -2.53798
C         -9.01180      -10.88031       -2.85853
C         -9.36474      -10.73207       -4.28769
O         -9.36818       -9.70833       -4.94281
N         -9.69866      -12.05603       -4.67181
C        -10.16837      -12.39001       -6.00459
C         -9.03975      -12.73266       -6.96534
C         -9.53828      -12.94577       -3.61141
C         -9.89807      -14.32632       -3.65284
C         -9.10112      -15.36769       -3.35753
C         -9.59605      -16.69932       -3.50214
S         -9.04714      -17.92146       -2.42432
C        -10.47274      -17.24179       -4.43564
C        -10.95510      -16.56131       -5.65955
O        -10.52115      -15.50799       -6.10326
C        -11.97833      -17.31060       -6.35382
C        -12.66560      -16.96896       -7.50228
N        -13.49514      -18.01695       -7.81906
C        -14.35115      -18.06333       -8.99454
C        -15.17097      -19.33848       -9.11938
C        -13.35988      -19.00137       -6.87318
C        -12.42210      -18.59296       -5.95119
C        -11.93993      -19.32702       -4.79209
O        -12.35589      -20.42905       -4.48505
C        -10.89882      -18.58506       -4.05318
C        -10.20580      -19.08126       -2.94992
C        -10.27378      -20.39966       -2.39394
C        -10.08438      -20.79892       -1.12826
C         -9.95719      -22.28040       -0.91265
O        -10.28618      -23.18292       -1.65454
C         -9.28030      -22.43707        0.38243
C         -8.92197      -23.64142        0.96494
C         -8.28647      -23.60216        2.20938
C         -7.96654      -22.34230        2.80080
C         -7.32620      -22.32122        4.04836
C         -7.03975      -23.51227        4.70955
C         -7.36697      -24.73379        4.13852
C         -7.97704      -24.78840        2.89002
F         -7.10640      -25.87484        4.79066
F         -6.45656      -23.46741        5.91517
C         -8.32637      -21.13855        2.15738
C         -9.04048      -21.18533        0.96834
C         -9.76108      -20.15997        0.15606
C        -10.34394      -19.05476        0.68474
C        -11.48805      -18.46649        0.06459
N        -12.46528      -18.04480       -0.39596
C         -9.99472      -18.52044        1.95203
N         -9.69120      -18.08388        2.99212
H         -3.66384        1.12736        1.06395
H         -2.28487       -3.63296        1.49789
H         -4.68290        0.65088       -1.12844
H         -3.16492       -4.11136       -0.79650
H         -7.72306       -2.46990       -4.41172
H         -7.96985       -7.21856       -6.15379
H         -7.84201       -7.86751       -3.70408
H         -7.17439       -3.41337       -1.45200
H         -6.63781       -4.12681        0.98378
H         -6.51425       -8.85564       -0.91612
H         -9.38341       -8.20645       -1.81646
H         -7.63715      -10.06336        0.81965
H         -7.79846      -11.78361        1.12384
H        -10.14902       -9.82040        1.10511
H         -9.37080      -10.51552        2.54144
H        -10.25701      -11.55881        1.41525
H        -10.71977      -11.53083       -6.40337
H        -10.89328      -13.20385       -5.94256
H         -8.37861      -11.87265       -7.11166
H         -9.44476      -13.01659       -7.94330
H         -8.43175      -13.56466       -6.59622
H        -10.92938      -14.48549       -3.95407
H         -8.08878      -15.21388       -2.99012
H        -12.61317      -16.07801       -8.12173
H        -13.69671      -17.95078       -9.86678
H        -15.01350      -17.19189       -8.94057
H        -14.52010      -20.21935       -9.16157
H        -15.77939      -19.32522      -10.02649
H        -15.84124      -19.45472       -8.26016
H        -13.91323      -19.92701       -6.91606
H        -10.47644      -21.18773       -3.12628
H         -9.16349      -24.57762        0.46883
H         -7.06607      -21.38439        4.53481
H         -8.22328      -25.76188        2.47374
H         -8.06685      -20.19439        2.62678
