119

C         -5.82815       -1.92221      -11.84994
C         -4.90612       -2.59545      -12.64885
F         -4.48401       -2.02093      -13.78312
C         -4.43647       -3.85135      -12.28963
F         -3.58399       -4.50905      -13.08581
C         -4.84961       -4.44386      -11.10500
C         -5.76003       -3.77841      -10.27846
C         -6.29050       -2.50773      -10.66424
C         -7.29037       -1.88104       -9.88551
C         -7.75785       -2.51506       -8.74593
C         -7.17768       -3.74221       -8.38509
C         -6.18343       -4.37993       -9.10004
C         -7.89214       -4.34561       -7.26645
O         -7.50712       -5.29616       -6.62269
C         -9.14274       -3.53385       -7.12896
C         -8.88685       -2.24772       -7.80998
C         -9.45578       -1.05614       -7.52990
C        -10.42586       -0.90718       -6.48412
N        -11.19608       -0.81731       -5.62541
C         -9.06546        0.15033       -8.17670
N         -8.73861        1.12522       -8.71595
C        -10.30649       -4.04689       -6.69960
C        -10.53831       -5.40116       -6.23904
C        -11.31878       -6.31976       -6.86579
N        -12.00115       -6.09891       -8.12376
O        -13.03450       -6.75323       -8.32079
O        -11.51469       -5.29342       -8.92986
C        -11.41790       -7.55188       -6.12356
C        -10.66245       -7.44012       -5.01870
C        -10.02895       -6.11365       -5.01933
C         -9.18078       -5.66405       -4.06326
C         -8.71483       -4.28386       -3.92795
C         -8.02353       -4.17975       -2.78620
C         -7.94553       -5.48746       -2.18652
N         -7.11610       -5.73282       -1.03051
O         -7.08694       -4.83202       -0.17820
O         -6.46077       -6.77989       -0.96420
C         -8.58160       -6.42578       -2.92299
C         -8.49676       -7.85842       -2.75536
C         -8.84753       -8.51813       -1.64187
C         -8.65774       -9.92841       -1.46034
N         -8.22639      -10.48355       -0.25457
C         -7.87101       -9.76461        0.95436
C         -9.06723       -9.53637        1.86471
C         -8.14902      -11.88571       -0.32637
O         -7.83711      -12.68573        0.52857
C         -8.56697      -12.16455       -1.70948
C         -8.87367      -10.91140       -2.34036
C         -9.32154      -11.20106       -3.71427
O         -9.68262      -10.40207       -4.55392
N         -9.24053      -12.60443       -3.78444
C         -9.66804      -13.33614       -4.96481
C        -10.85794      -14.25000       -4.71465
C         -8.78171      -13.14651       -2.58530
C         -8.61985      -14.55282       -2.35628
C         -9.29387      -15.18695       -1.38374
C         -9.13752      -16.57523       -1.17052
S        -10.02074      -17.66876       -2.14031
C         -9.20492      -19.03132       -1.51030
C         -8.56514      -18.69445       -0.32176
C         -8.44734      -17.24445       -0.17212
C         -7.68511      -16.59342        0.95119
F         -7.70216      -15.24780        0.90225
F         -8.18896      -16.95190        2.15611
F         -6.38338      -16.97080        0.93282
C         -8.04522      -19.64952        0.71599
F         -8.23035      -20.94997        0.38290
F         -6.71924      -19.48352        0.92952
F         -8.67070      -19.45718        1.90353
C         -9.41932      -20.29436       -2.12462
C         -8.61165      -20.83024       -3.06439
C         -8.74925      -22.30791       -3.32791
O         -9.72652      -23.00913       -3.14169
C         -7.42634      -22.74627       -3.79157
C         -7.03386      -24.04695       -4.07096
C         -5.69994      -24.27279       -4.43447
C         -4.77511      -23.18346       -4.44545
C         -3.43339      -23.42731       -4.77358
C         -3.01869      -24.70948       -5.11992
C         -3.92332      -25.76073       -5.13827
C         -5.25468      -25.55588       -4.78921
F         -3.52195      -26.98777       -5.49761
F         -1.73583      -24.91629       -5.44679
C         -5.21346      -21.87794       -4.15639
C         -6.55293      -21.65000       -3.88676
C         -7.37151      -20.41019       -3.72176
C         -7.13135      -19.28266       -4.43554
C         -8.13464      -18.32013       -4.75539
N         -8.89096      -17.52296       -5.13503
C         -5.89730      -19.04123       -5.10272
N         -4.88302      -18.83923       -5.63810
H         -6.18480       -0.94949      -12.17653
H         -4.47320       -5.43307      -10.85462
H         -7.72349       -0.94765      -10.23485
H         -5.81755       -5.34927       -8.77277
H        -11.22342       -3.46822       -6.80538
H        -12.03073       -8.39624       -6.39888
H        -10.60389       -8.18572       -4.25149
H         -8.86659       -3.46265       -4.59790
H         -7.53327       -3.29637       -2.40889
H         -8.08298       -8.39202       -3.61257
H         -9.25446       -7.97546       -0.79338
H         -7.39894       -8.81428        0.68978
H         -7.12346      -10.35280        1.49991
H         -9.86100       -8.98446        1.35213
H         -8.76629       -8.96069        2.74566
H         -9.48997      -10.48681        2.20674
H         -8.81314      -13.89790       -5.35418
H         -9.95529      -12.61218       -5.73765
H        -10.61046      -15.05706       -4.02322
H        -11.18266      -14.71730       -5.64865
H        -11.70023      -13.69575       -4.28868
H         -7.95057      -15.08006       -3.02901
H         -9.97809      -14.64653       -0.73025
H        -10.22546      -20.89980       -1.71718
H         -7.75799      -24.85572       -4.00815
H         -2.69744      -22.62695       -4.78112
H         -5.93346      -26.40384       -4.81150
H         -4.48933      -21.06559       -4.16975
