112

C         -3.44937      -12.53428      -15.08085
C         -3.28553      -13.91852      -15.14441
F         -2.16843      -14.42294      -15.68618
C         -4.25726      -14.77005      -14.63973
F         -4.06628      -16.09651      -14.64637
C         -5.44174      -14.25606      -14.12886
C         -5.65071      -12.86948      -14.10336
C         -4.61359      -11.97885      -14.52171
C         -4.76286      -10.57745      -14.34152
C         -5.94157      -10.08310      -13.79814
C         -6.98680      -10.98203      -13.55924
C         -6.87031      -12.35454      -13.66467
C         -8.14951      -10.22928      -13.08592
O         -9.29651      -10.35916      -13.44691
C         -7.57268       -9.04590      -12.40142
C         -6.40328       -8.75239      -13.28716
C         -6.05856       -7.54249      -13.78336
C         -6.71538       -6.36042      -13.34678
N         -7.26424       -5.41471      -12.95999
C         -5.14331       -7.41145      -14.86721
N         -4.42028       -7.33492      -15.77518
C         -7.89066       -8.61908      -11.15839
C         -8.86657       -9.09469      -10.13386
C         -9.73733      -10.14867      -10.08799
N         -9.85599      -11.23839      -11.00591
O        -10.98167      -11.44917      -11.47684
O         -8.87313      -11.99055      -11.10135
C        -10.34421      -10.36997       -8.79788
C         -9.81081       -9.51842       -7.92725
C         -8.87975       -8.65670       -8.66096
C         -8.25758       -7.64653       -8.01772
C         -8.06978       -6.30426       -8.55854
C         -7.67053       -5.52083       -7.54016
C         -7.50251       -6.34072       -6.35842
N         -6.97487       -5.82968       -5.12289
O         -7.60250       -6.06379       -4.08193
O         -5.92620       -5.17585       -5.19605
C         -7.81047       -7.63524       -6.57761
C         -7.63131       -8.80082       -5.71319
C         -6.79268       -8.96731       -4.67799
C         -6.72332      -10.13562       -3.83795
C         -7.11791      -11.38957       -4.01451
C         -6.87956      -12.07287       -2.80348
C         -6.24592      -11.11405       -1.88803
O         -5.84652      -11.32570       -0.76361
O         -6.15289       -9.90921       -2.56119
C         -7.40623      -13.28311       -2.95508
O         -7.95859      -13.47967       -4.25855
C         -7.77784      -12.29468       -4.94619
O         -8.12824      -12.06674       -6.08547
C         -7.72682      -14.34811       -2.02925
C         -8.38329      -14.10694       -0.86371
N         -7.76563      -13.30888        0.16411
O         -6.63888      -13.66640        0.53705
O         -8.47246      -12.43572        0.67579
C         -9.18713      -15.22382       -0.44854
C         -8.97360      -16.24455       -1.28389
C         -7.97803      -15.81198       -2.26417
C         -7.31998      -16.67004       -3.07334
C         -6.56858      -16.31843       -4.27414
C         -6.20418      -17.46339       -4.87361
C         -6.60484      -18.57354       -4.03177
N         -6.18782      -19.93574       -4.29828
O         -6.90549      -20.86024       -3.88742
O         -5.15796      -20.08395       -4.95902
C         -7.22952      -18.16230       -2.90874
C         -7.52121      -18.98776       -1.73445
C         -7.16109      -18.67707       -0.47342
C         -7.39266      -19.54649        0.67091
C         -7.37450      -19.17913        1.96195
C         -7.32660      -20.17152        3.08922
O         -7.62816      -21.34417        3.05919
C         -6.80619      -19.40872        4.25237
C         -6.58202      -19.86921        5.53458
C         -6.05890      -18.96514        6.47275
C         -5.70184      -17.63697        6.07244
C         -5.13584      -16.76035        7.00659
C         -4.96621      -17.16695        8.32473
C         -5.35449      -18.43746        8.72642
C         -5.88939      -19.34035        7.81178
F         -5.21974      -18.80765       10.00687
F         -4.43636      -16.31148        9.20886
C         -5.96116      -17.19685        4.76738
C         -6.58014      -18.06971        3.89059
C         -7.27389      -17.86711        2.60158
C         -8.24786      -16.92264        2.53568
C         -9.48719      -17.25707        1.91652
N        -10.50592      -17.54856        1.44076
C         -8.24349      -15.72630        3.31918
N         -8.24089      -14.76420        3.96376
H         -2.65598      -11.90497      -15.47540
H         -6.18788      -14.94835      -13.74621
H         -3.93511       -9.92025      -14.59546
H         -7.69565      -12.99459      -13.36304
H         -7.25293       -7.82680      -10.76342
H        -11.09229      -11.12234       -8.59543
H        -10.12333       -9.43037       -6.89855
H         -8.38613       -5.95020       -9.52855
H         -7.54627       -4.44774       -7.54852
H         -8.23472       -9.65678       -5.98489
H         -6.12080       -8.17325       -4.36038
H         -9.91073      -15.16245        0.34796
H         -9.49872      -17.18882       -1.27565
H         -6.40764      -15.33946       -4.68980
H         -5.68151      -17.56502       -5.81398
H         -8.05013      -19.92253       -1.92369
H         -6.61712      -17.75323       -0.28052
H         -7.49939      -20.60840        0.44083
H         -6.83702      -20.89223        5.79662
H         -4.83988      -15.75095        6.73146
H         -6.18424      -20.32481        8.16468
H         -5.73615      -16.17329        4.47608
