111

C         -9.00397        2.12476        2.40788
C        -10.38974        2.20429        2.30198
F        -10.95482        3.37591        1.98102
C        -11.18113        1.08838        2.53326
F        -12.51491        1.17610        2.44198
C        -10.60129       -0.13068        2.86540
C         -9.20783       -0.23427        2.98257
C         -8.39047        0.91343        2.75993
C         -6.98831        0.83003        2.91075
C         -6.40251       -0.36561        3.30676
C         -7.23194       -1.48301        3.46361
C         -8.61062       -1.45070        3.31731
C         -6.44445       -2.67925        3.77485
O         -6.92037       -3.77411        3.98768
C         -5.00379       -2.24670        3.74610
C         -5.00407       -0.76674        3.64940
C         -3.99426        0.07201        3.99083
C         -2.76125       -0.39475        4.53264
N         -1.76532       -0.77855        4.98863
C         -4.10612        1.48928        3.91469
N         -4.19561        2.64271        3.84011
C         -3.97499       -3.10297        3.63376
C         -4.05363       -4.54092        3.61425
C         -3.56593       -5.29013        2.60219
C         -3.81805       -6.70268        2.90328
C         -4.52301       -6.70850        4.19661
C         -4.62161       -5.43459        4.60862
C         -5.08218       -7.79053        4.91558
N         -5.56990       -8.66102        5.50922
C         -3.43024       -7.74741        2.14196
C         -3.62776       -9.14977        2.48265
C         -3.00464       -9.92817        1.57153
C         -2.44116       -9.04446        0.56152
C         -2.69334       -7.76160        0.87467
C         -2.29539       -6.67292        0.07102
N         -1.96892       -5.78003       -0.59611
C         -2.98117      -11.36399        1.66392
N         -3.05312      -12.25523        0.59009
C         -3.11711      -11.92281       -0.80868
C         -3.05324      -13.59920        1.02148
O         -3.08822      -14.62847        0.38079
C         -2.98948      -13.46312        2.48194
C         -2.91251      -12.06726        2.80392
C         -2.80319      -11.94305        4.26794
O         -2.67238      -10.92290        4.91150
N         -2.86091      -13.28072        4.69280
C         -2.82704      -13.66035        6.08548
C         -2.98083      -14.15533        3.61671
C         -3.04016      -15.57160        3.77339
C         -4.03537      -16.34279        3.30595
C         -4.08542      -17.80545        3.48016
C         -4.69094      -18.66641        2.54274
C         -4.62238      -20.10181        2.66632
N         -5.23535      -20.88222        1.74517
C         -5.92127      -20.28480        0.72987
C         -5.98009      -18.91748        0.60933
N         -5.36393      -18.10785        1.50872
C         -6.71499      -18.25739       -0.42995
N         -7.33061      -17.74765       -1.27222
C         -6.61070      -21.16622       -0.16586
N         -7.19426      -21.85738       -0.89430
C         -3.94651      -20.73110        3.73809
C         -3.50315      -19.88624        4.79623
C         -3.55603      -18.40134        4.65864
N         -3.06791      -17.77027        5.74293
S         -2.61691      -18.91127        6.83734
N         -3.00378      -20.26964        5.98640
C         -3.77861      -22.20114        3.84001
C         -2.77632      -22.91199        4.38920
C         -3.03686      -24.35373        4.73645
O         -3.84520      -25.10767        4.23888
C         -2.16949      -24.63275        5.90135
C         -2.19730      -25.75626        6.71091
C         -1.42181      -25.74717        7.88061
C         -0.67301      -24.58072        8.22682
C          0.04316      -24.55171        9.43187
C          0.05120      -25.66453       10.26482
C         -0.64600      -26.81159        9.91364
C         -1.38563      -26.85926        8.73482
F         -0.61719      -27.88658       10.71275
F          0.74438      -25.61862       11.41055
C         -0.65328      -23.47076        7.36513
C         -1.36275      -23.52020        6.17462
C         -1.51820      -22.55601        5.05893
C         -0.56860      -21.68739        4.63595
C         -0.71395      -20.93937        3.43309
N         -0.85941      -20.30590        2.47157
C          0.64583      -21.47529        5.34895
N          1.61818      -21.29111        5.95506
H         -8.41929        3.02288        2.22555
H        -11.24980       -0.98554        3.03916
H         -6.39697        1.71963        2.71652
H         -9.19299       -2.35628        3.47003
H         -2.96094       -2.74370        3.47631
H         -3.08970       -4.88625        1.72494
H         -5.10765       -5.09386        5.51208
H         -4.15505       -9.52384        3.34442
H         -1.89752       -9.38385       -0.30677
H         -3.88321      -11.16224       -0.97809
H         -3.36393      -12.80845       -1.40167
H         -2.13726      -11.55999       -1.13165
H         -2.72476      -12.77645        6.72166
H         -1.97336      -14.32137        6.26071
H         -3.75678      -14.17562        6.34435
H         -2.19699      -15.98915        4.31663
H         -4.84342      -15.90265        2.72298
H         -4.63970      -22.75398        3.45517
H         -2.82962      -26.60012        6.44729
H          0.60527      -23.67243        9.73678
H         -1.92577      -27.77190        8.49771
H         -0.09866      -22.58285        7.65628
