99

C          3.60047       -4.69542       -1.44715
C          4.14737       -5.15523       -2.64303
F          5.47918       -5.17954       -2.78778
C          3.32716       -5.58046       -3.67803
F          3.85998       -6.02893       -4.82261
C          1.94482       -5.54110       -3.54322
C          1.37040       -5.06155       -2.35866
C          2.20756       -4.63934       -1.28117
C          1.63440       -4.16608       -0.07841
C          0.25261       -4.07893        0.03819
C         -0.53720       -4.50799       -1.04159
C         -0.01743       -4.99431       -2.22847
C         -1.96626       -4.42259       -0.71293
O         -2.88441       -4.58289       -1.48929
C         -2.01155       -4.09761        0.75007
C         -0.66710       -3.60069        1.11146
C         -0.37419       -2.70914        2.08925
C         -1.39419       -2.10290        2.88289
N         -2.22884       -1.60553        3.51643
C          0.95116       -2.24398        2.33654
N          2.03377       -1.89090        2.54070
C         -3.02009       -4.45723        1.56032
C         -4.20184       -5.08902        1.08971
S         -4.30682       -6.81512        1.01121
C         -5.94567       -6.80897        0.41746
C         -6.38805       -5.50956        0.38322
C         -5.39637       -4.55127        0.69975
C         -5.91448       -3.21122        0.55837
O         -5.28435       -2.17430        0.68890
C         -7.40476       -3.33012        0.21659
C         -7.64382       -4.83886        0.09317
O         -8.71629       -5.36508       -0.16202
C         -6.55854       -8.05575        0.09154
C         -7.50483       -8.13661       -0.85584
C         -8.13963       -9.35450       -1.22305
S         -8.70921       -9.50939       -2.85546
C         -9.36424      -11.09744       -2.61415
C         -9.14874      -11.46398       -1.31245
C         -8.45600      -10.50643       -0.54905
S         -8.23812      -11.09315        1.08093
C         -9.07262      -12.58858        0.60043
S         -9.36797      -13.90632        1.56326
O         -9.49965      -12.62623       -0.71039
C         -9.97280      -11.73100       -3.72680
C        -10.99550      -12.59132       -3.62648
C        -11.63389      -13.10344       -4.79467
S        -12.40548      -14.65317       -4.71732
C        -12.95936      -14.61385       -6.36484
C        -12.56196      -13.42595       -6.93073
C        -11.81902      -12.58705       -6.05665
C        -11.47751      -11.34666       -6.73268
O        -10.86496      -10.39365       -6.27761
C        -12.03147      -11.41636       -8.15039
C        -12.73994      -12.76791       -8.21396
O        -13.34506      -13.19075       -9.18806
C        -13.71483      -15.72566       -6.83833
C        -13.75928      -16.05901       -8.13476
C        -14.55746      -17.15141       -8.64233
C        -14.64640      -17.57509       -9.91154
C        -15.82759      -18.43550      -10.23987
O        -16.53985      -19.05707       -9.47913
C        -15.99925      -18.33204      -11.69449
C        -17.00838      -18.93803      -12.42616
C        -16.98492      -18.79873      -13.81568
C        -15.96307      -18.01444      -14.42906
C        -15.92145      -17.91991      -15.82714
C        -16.86401      -18.58864      -16.60109
C        -17.86606      -19.33815      -16.00139
C        -17.93809      -19.44280      -14.61653
F        -18.76877      -19.98095      -16.75420
F        -16.78712      -18.51070      -17.93636
C        -14.98701      -17.37200      -13.64062
C        -14.98075      -17.55087      -12.26382
C        -14.01579      -17.18108      -11.18234
C        -12.72718      -16.81465      -11.38463
C        -11.72812      -16.96128      -10.37889
N        -10.88541      -17.11090       -9.59220
C        -12.23307      -16.34486      -12.63520
N        -11.83697      -15.93230      -13.64528
H          4.27816       -4.37184       -0.66111
H          1.33054       -5.88172       -4.37262
H          2.29391       -3.88264        0.73719
H         -0.68951       -5.31445       -3.02118
H         -2.94864       -4.33497        2.63714
H         -7.62355       -2.84054       -0.73325
H         -8.00136       -2.93279        1.04149
H         -6.19712       -8.94846        0.59391
H         -7.80045       -7.25220       -1.41530
H         -9.58591      -11.44687       -4.69939
H        -11.37645      -12.90086       -2.65533
H        -11.21050      -11.39069       -8.87020
H        -12.74827      -10.60698       -8.30277
H        -14.25393      -16.32574       -6.10673
H        -13.21148      -15.46995       -8.85753
H        -15.22716      -17.60286       -7.90587
H        -17.76615      -19.52945      -11.91795
H        -15.14648      -17.34913      -16.33281
H        -18.73040      -20.04504      -14.17991
H        -14.23652      -16.77398      -14.14650
