110

C         -0.04441       -2.16121      -10.91785
C          0.18477       -2.52624      -12.24440
F          1.06747       -1.82979      -12.97320
C         -0.47804       -3.60815      -12.80532
F         -0.24357       -3.96220      -14.07621
C         -1.37960       -4.34648      -12.05096
C         -1.60998       -4.01034      -10.71009
C         -0.93784       -2.89828      -10.12111
C         -1.15380       -2.58001       -8.75494
C         -2.00156       -3.36758       -7.97906
C         -2.61812       -4.46075       -8.59881
C         -2.46804       -4.78790       -9.93644
C         -3.34849       -5.27487       -7.62633
O         -4.05825       -6.21662       -7.90495
C         -3.02474       -4.69817       -6.27983
C         -2.37430       -3.38376       -6.52512
C         -2.23055       -2.36076       -5.64916
C         -1.66342       -1.10627       -6.01770
N         -1.18585       -0.09265       -6.31382
C         -2.65011       -2.44921       -4.28877
N         -2.95853       -2.54311       -3.17365
C         -3.16160       -5.42790       -5.15593
C         -3.54463       -6.81203       -5.10131
C         -2.56015       -7.78350       -5.13389
S         -3.19849       -9.36410       -5.12671
C         -4.79407       -8.76481       -5.09557
C         -4.87238       -7.37786       -5.08406
C         -6.18358       -6.72123       -5.12888
O         -7.20392       -7.32689       -5.44997
O         -6.15670       -5.39358       -4.75305
C         -7.29101       -4.72492       -5.21304
C         -8.31063       -4.30438       -4.45012
C         -9.44655       -3.61708       -5.01217
N        -10.78258       -3.94718       -4.74549
C        -11.26584       -4.87400       -3.74390
C        -11.25209       -6.32232       -4.18720
C        -11.67810       -3.08427       -5.41634
O        -12.89181       -3.04685       -5.41542
C        -10.77316       -2.12663       -6.06054
C         -9.42466       -2.51822       -5.77773
C         -8.53723       -1.47835       -6.32771
O         -7.32795       -1.41988       -6.22012
N         -9.45593       -0.52910       -6.85703
C         -9.04529        0.85224       -7.03154
C         -9.25777        1.65751       -5.75113
C        -10.77757       -0.95864       -6.70354
C        -11.96702       -0.19668       -6.97712
C        -12.32548        0.38650       -8.13701
C        -13.59911        1.03787       -8.35539
C        -14.72931        0.68565       -7.63650
S        -16.09779        1.61643       -8.03946
C        -15.21861        2.47734       -9.21799
C        -13.89331        2.07751       -9.32593
C        -12.96174        2.70762      -10.26997
O        -11.75496        2.50158      -10.26159
O        -13.59523        3.53914      -11.17972
C        -12.74529        4.52807      -11.66360
C        -12.50229        4.81452      -12.94784
C        -12.99044        4.15364      -14.13362
C        -12.86336        2.87114      -14.49921
C        -13.58218        2.39758      -15.72573
O        -14.01734        3.06107      -16.64285
C        -13.72037        0.94139      -15.55588
C        -14.44445        0.09737      -16.37983
C        -14.63953       -1.21852      -15.95579
C        -14.10100       -1.64990      -14.70371
C        -14.38929       -2.95133      -14.26119
C        -15.17791       -3.80073      -15.03571
C        -15.66692       -3.38503      -16.26572
C        -15.39743       -2.10485      -16.73426
F        -16.42058       -4.20786      -17.00746
F        -15.46868       -5.02591      -14.57704
C        -13.30916       -0.77284      -13.92685
C        -13.09471        0.52440      -14.37049
C        -12.30565        1.67935      -13.85439
C        -11.11512        1.58669      -13.21229
C        -10.20996        2.68973      -13.14791
N         -9.44820        3.56698      -13.15847
C        -10.62677        0.35758      -12.68775
N        -10.25343       -0.65312      -12.25302
H          0.49912       -1.30882      -10.51827
H         -1.87841       -5.19294      -12.51617
H         -0.60783       -1.74080       -8.33333
H         -2.97440       -5.66201      -10.33912
H         -2.82986       -5.03558       -4.19945
H         -1.48798       -7.64952       -5.19316
H         -5.62123       -9.46348       -5.10714
H         -7.23276       -4.59085       -6.28882
H         -8.31082       -4.49901       -3.38207
H        -12.29863       -4.59961       -3.49448
H        -10.68365       -4.73906       -2.82597
H        -11.76820       -6.45069       -5.14343
H        -11.75860       -6.94158       -3.43889
H        -10.22927       -6.69302       -4.29586
H         -9.58190        1.30013       -7.87205
H         -7.97662        0.86623       -7.27489
H        -10.32426        1.79560       -5.54385
H         -8.80105        2.64757       -5.83451
H         -8.82092        1.14971       -4.88342
H        -12.66219       -0.18251       -6.13798
H        -11.63468        0.34043       -8.97742
H        -14.83210       -0.07941       -6.87689
H        -15.72784        3.25438       -9.77302
H        -12.32443        5.11863      -10.85440
H        -11.87248        5.68157      -13.15470
H        -13.49953        4.83398      -14.82113
H        -14.87406        0.47644      -17.30302
H        -14.02254       -3.31900      -13.30582
H        -15.80192       -1.80840      -17.69863
H        -12.90393       -1.12085      -12.98062
