109

C         -5.93815        3.89633        0.82247
C         -4.85353        4.77088        0.78421
F         -5.06107        6.08003        0.98057
C         -3.57066        4.29762        0.54977
F         -2.52982        5.14138        0.54018
C         -3.35243        2.94590        0.31346
C         -4.43291        2.05168        0.31315
C         -5.75056        2.52183        0.60661
C         -6.83529        1.61252        0.68046
C         -6.62121        0.26524        0.42054
C         -5.32819       -0.13708        0.05491
C         -4.22966        0.70364        0.01749
C         -5.32037       -1.57301       -0.22901
O         -4.58229       -2.14323       -1.00302
C         -6.52723       -2.10710        0.47156
C         -7.47593       -0.96538        0.48716
C         -8.82196       -1.03127        0.37622
C         -9.62670        0.13392        0.21208
N        -10.26319        1.09269        0.07225
C         -9.51464       -2.28162        0.32524
N        -10.05967       -3.29905        0.30413
C         -6.57501       -3.28543        1.12283
C         -5.46773       -4.18749        1.24778
S         -5.73582       -5.91911        1.42679
C         -4.03048       -6.31063        1.53150
C         -3.34542       -5.13776        1.41775
C         -4.11215       -4.00553        1.32520
O         -3.32375       -2.92059        1.32493
C         -2.01932       -3.42390        1.35623
O         -1.00935       -2.73655        1.35666
O         -2.04296       -4.82258        1.43885
C         -3.57933       -7.63267        1.73674
N         -3.31469       -8.21330        2.98564
C         -3.46312       -7.59702        4.29083
C         -2.17562       -7.61717        5.10916
C         -2.89876       -9.55303        2.84576
O         -2.60174      -10.37888        3.68405
C         -2.89929       -9.73635        1.39150
C         -3.30891       -8.51111        0.76418
C         -3.26492       -8.74237       -0.69676
O         -3.53158       -7.94291       -1.56997
N         -2.85502      -10.09581       -0.79815
C         -2.77426      -10.79581       -2.07046
C         -1.41087      -10.70038       -2.73720
C         -2.64838      -10.65377        0.46112
C         -2.20807      -11.99166        0.70814
C         -2.89627      -12.87486        1.45083
C         -2.39903      -14.18074        1.80581
C         -1.55130      -14.91509        1.05149
C         -1.31984      -16.20122        1.70882
C         -2.13196      -16.16004        2.93283
C         -2.76204      -14.97229        2.96836
C         -2.25215      -17.13094        3.94705
N         -2.37005      -17.93324        4.78123
C         -0.52123      -17.18499        1.24370
C         -0.33635      -18.49964        1.85963
C          0.57272      -19.18734        1.14278
C          0.97986      -18.36674        0.01314
C          0.34322      -17.18485        0.05454
C          0.54922      -16.16011       -0.90045
N          0.73459      -15.32979       -1.68659
C          1.01302      -20.51631        1.46683
C          2.26301      -20.91165        1.74033
C          2.54731      -22.37983        1.63870
O          1.75564      -23.29916        1.65897
C          3.99538      -22.48435        1.40583
C          4.68446      -23.64756        1.09956
C          6.05478      -23.55247        0.83601
C          6.69117      -22.27498        0.85753
C          8.06550      -22.19416        0.58510
C          8.79501      -23.34699        0.30969
C          8.17367      -24.58722        0.29147
C          6.81081      -24.69805        0.54682
F          8.88322      -25.69320        0.02958
F         10.10874      -23.24749        0.06553
C          5.94679      -21.11390        1.15774
C          4.59522      -21.21659        1.46620
C          3.55500      -20.22698        1.88369
C          3.80267      -19.05335        2.52399
C          2.79257      -18.28602        3.18140
N          2.02714      -17.63212        3.75295
C          5.11752      -18.54089        2.69307
N          6.19334      -18.12522        2.81853
H         -6.92571        4.30900        1.01192
H         -2.33589        2.60790        0.12695
H         -7.81621        1.99069        0.95540
H         -3.24714        0.30469       -0.22248
H         -7.47484       -3.56539        1.66638
H         -4.23770       -8.14824        4.83692
H         -3.80084       -6.56264        4.18366
H         -1.82104       -8.63681        5.29107
H         -2.34083       -7.15421        6.08712
H         -1.37520       -7.07387        4.59800
H         -3.51991      -10.35510       -2.74332
H         -3.05228      -11.84653       -1.93093
H         -1.09409       -9.65953       -2.85560
H         -1.44469      -11.15757       -3.73338
H         -0.64726      -11.22560       -2.15527
H         -1.21867      -12.23425        0.32849
H         -3.86786      -12.60947        1.86691
H         -1.15000      -14.58935        0.10831
H         -3.41686      -14.62081        3.75365
H         -0.80375      -18.87015        2.75770
H          1.68076      -18.68899       -0.74381
H          0.23017      -21.27246        1.36884
H          4.15646      -24.59740        1.06427
H          8.58955      -21.24151        0.59419
H          6.35668      -25.68531        0.52302
H          6.45596      -20.15482        1.13778
