125

C         -0.37109       -5.55714        2.32138
C         -0.77205       -6.14099        3.52490
F         -0.33095       -5.62931        4.68171
C         -1.62944       -7.23178        3.53463
F         -2.05735       -7.75322        4.69217
C         -2.05557       -7.79672        2.34358
C         -1.63723       -7.24976        1.12800
C         -0.82281       -6.07591        1.09526
C         -0.52831       -5.45427       -0.14808
C         -1.03058       -6.00490       -1.32380
C         -1.75048       -7.20357       -1.23650
C         -2.05784       -7.84165       -0.05451
C         -2.32565       -7.58254       -2.52667
O         -2.86129       -8.64252       -2.77011
C         -2.17910       -6.36358       -3.38048
C         -1.10447       -5.54932       -2.74798
C         -0.24989       -4.69700       -3.36635
C         -0.35322       -4.41876       -4.75786
N         -0.46878       -4.17747       -5.88730
C          0.83467       -4.06070       -2.67608
N          1.69290       -3.54621       -2.10684
C         -3.07579       -6.05809       -4.33823
C         -4.20117       -6.87366       -4.79175
C         -4.16744       -8.03614       -5.50424
N         -2.99004       -8.69793       -6.02691
O         -1.88979       -8.50023       -5.49788
O         -3.17324       -9.45026       -6.99692
C         -5.49439       -8.55545       -5.77551
C         -6.38518       -7.78129       -5.15135
C         -5.65245       -6.75397       -4.41499
C         -6.30890       -5.89302       -3.61213
C         -6.05845       -4.46531       -3.47086
C         -7.03930       -3.96756       -2.69371
C         -7.86299       -5.06328       -2.21010
N         -8.81020       -4.93247       -1.12202
O         -9.70856       -5.77602       -1.01004
O         -8.66308       -3.95420       -0.37529
C         -7.47787       -6.24597       -2.73661
C         -7.77975       -7.56601       -2.18530
C         -8.37458       -8.57087       -2.84761
C         -8.51001       -9.92037       -2.36894
S         -8.01033      -10.38073       -0.79608
C         -8.50263      -12.01743       -0.98076
C         -8.89974      -12.25851       -2.29492
C         -8.99983      -11.03932       -3.04991
C         -9.52346      -11.08379       -4.45838
C        -10.57742      -10.00079       -4.62171
N        -11.45177       -9.10235       -4.75721
C        -10.14146      -12.40733       -4.91167
C         -9.26497      -13.56265       -4.47607
C         -9.23611      -13.58821       -2.95707
C         -8.18272      -14.57122       -2.47285
N         -7.30885      -15.38670       -2.07115
C         -8.39185      -12.83304        0.19062
C         -9.36838      -13.69479        0.54284
C         -9.41922      -14.40327        1.81225
C         -9.62338      -13.84965        3.03545
N         -9.96038      -12.45800        3.28761
O        -10.19242      -11.70376        2.33562
O        -10.01459      -12.11115        4.47714
C         -9.45223      -14.82161        4.09768
C         -9.07335      -15.99601        3.56634
C         -9.06410      -15.84569        2.10864
C         -8.87167      -16.84316        1.21280
C         -9.37221      -16.74789       -0.15385
C         -9.01865      -17.85481       -0.81228
C         -8.30243      -18.72352        0.09313
N         -7.83401      -20.02612       -0.35865
O         -7.45412      -20.86335        0.46572
O         -7.88784      -20.23536       -1.58032
C         -8.21435      -18.19331        1.34156
C         -7.57795      -18.78802        2.50659
C         -6.33682      -19.30313        2.51034
C         -5.77548      -20.02370        3.63229
C         -4.48794      -20.01046        3.99771
C         -4.12422      -20.49641        5.37152
O         -4.71355      -21.29165        6.07010
C         -2.92674      -19.71619        5.73908
C         -2.23642      -19.77927        6.93328
C         -1.12191      -18.94749        7.08024
C         -0.80481      -17.98416        6.07170
C          0.30059      -17.14417        6.24487
C          1.12218      -17.30039        7.35319
C          0.83972      -18.26531        8.31235
C         -0.28772      -19.07217        8.19732
F          1.66315      -18.44178        9.35289
F          2.21109      -16.53039        7.47420
C         -1.55750      -17.92350        4.88850
C         -2.55784      -18.85849        4.68765
C         -3.33807      -19.26277        3.49331
C         -2.82587      -19.28283        2.23605
C         -3.34089      -20.16101        1.23326
N         -3.70771      -20.89692        0.42828
C         -1.64426      -18.57847        1.87326
N         -0.68948      -17.98132        1.59206
H          0.28717       -4.69338        2.36305
H         -2.72969       -8.64852        2.37808
H          0.02968       -4.52100       -0.14274
H         -2.67015       -8.73918       -0.07120
H         -3.03895       -5.08628       -4.82583
H         -5.71952       -9.34986       -6.47143
H         -7.44779       -7.79971       -5.32316
H         -5.34194       -3.87981       -4.02535
H         -7.22556       -2.92968       -2.45623
H         -7.42885       -7.69982       -1.16363
H         -8.76017       -8.35531       -3.83539
H         -8.68811      -10.84510       -5.13142
H        -10.25976      -12.41220       -6.00220
H        -11.14940      -12.53509       -4.49218
H         -8.25756      -13.45073       -4.89781
H         -9.66605      -14.50783       -4.86128
H        -10.21399      -13.91468       -2.57929
H         -7.56966      -12.64121        0.87056
H        -10.24174      -13.82006       -0.08985
H         -9.65443      -14.61829        5.13921
H         -8.96884      -16.90717        4.12874
H         -9.99895      -15.97953       -0.56489
H         -9.25689      -18.09458       -1.83716
H         -8.17257      -18.82801        3.41377
H         -5.74418      -19.25819        1.60400
H         -6.49176      -20.55977        4.25914
H         -2.53803      -20.48858        7.69959
H          0.56421      -16.39147        5.50334
H         -0.47744      -19.81735        8.96336
H         -1.30777      -17.18870        4.12932
