128

C         -2.33656        1.03201       -4.81247
C         -2.07906        0.93628       -6.17926
F         -1.21526        1.79039       -6.74458
C         -2.68039       -0.05156       -6.94573
F         -2.39207       -0.16784       -8.24893
C         -3.56474       -0.95114       -6.36557
C         -3.81503       -0.89437       -4.98938
C         -3.18098        0.10197       -4.18455
C         -3.34327        0.08825       -2.77763
C         -4.05833       -0.94361       -2.18331
C         -4.66774       -1.89497       -3.01254
C         -4.61290       -1.86847       -4.39448
C         -5.13470       -3.04601       -2.23308
O         -5.81125       -3.95331       -2.66354
C         -4.55830       -2.85479       -0.86242
C         -4.19781       -1.41168       -0.77234
C         -4.14820       -0.63617        0.34185
C         -4.41911       -1.17066        1.63690
N         -4.64296       -1.63661        2.67139
C         -3.88710        0.76691        0.28688
N         -3.66610        1.89639        0.22268
C         -4.20922       -3.86923       -0.04595
C         -4.34665       -5.31173       -0.24389
C         -3.31385       -6.20047       -0.32992
N         -1.90793       -5.88429       -0.21308
O         -1.12191       -6.59781       -0.85559
O         -1.56917       -4.97374        0.55183
C         -3.75418       -7.56673       -0.46536
C         -5.09038       -7.57712       -0.46922
C         -5.56981       -6.18957       -0.39493
C         -6.88187       -5.86084       -0.45376
C         -7.43878       -4.54680       -0.14797
C         -8.76195       -4.59986       -0.35229
C         -9.12030       -5.93836       -0.77869
N        -10.48869       -6.28729       -1.13048
O        -11.33182       -5.38606       -1.01153
O        -10.76349       -7.43712       -1.48821
C         -8.03802       -6.74698       -0.84681
C         -7.97742       -8.10323       -1.36352
C         -8.62554       -9.15739       -0.84289
C         -8.52803      -10.49318       -1.36029
N         -8.17149      -11.57728       -0.55679
C         -7.90275      -11.54209        0.86769
C         -9.14615      -11.82168        1.69919
C         -8.14625      -12.77829       -1.28767
O         -7.88451      -13.90304       -0.91425
C         -8.53401      -12.34841       -2.64447
C         -8.76934      -10.92891       -2.60309
C         -9.21250      -10.51509       -3.94794
O         -9.50252       -9.39469       -4.31158
N         -9.21060      -11.73225       -4.67042
C         -9.67890      -11.82549       -6.04168
C         -8.88685      -10.94613       -6.99459
C         -8.78544      -12.79665       -3.87833
C         -8.75286      -14.16416       -4.32513
C         -7.71192      -14.99012       -4.13600
C         -7.77979      -16.42314       -4.34299
C         -7.11578      -17.14207       -5.28242
N         -6.22618      -16.58572       -6.27869
O         -5.62994      -15.53042       -6.02735
O         -6.08860      -17.23893       -7.32312
C         -7.40801      -18.55619       -5.19361
C         -8.22324      -18.76151       -4.14831
C         -8.49062      -17.46425       -3.51400
C         -9.22970      -17.29812       -2.39107
C         -9.81195      -16.03957       -1.94783
C        -10.55878      -16.26007       -0.86237
C        -10.44278      -17.65542       -0.51659
N        -11.03167      -18.18227        0.69994
O        -11.63246      -17.37310        1.42081
O        -10.93096      -19.38876        0.94629
C         -9.64603      -18.32785       -1.38302
C         -9.15133      -19.68296       -1.21043
C         -7.84461      -19.97721       -1.05939
C         -7.28921      -21.32861       -0.79156
C         -8.05138      -22.20342        0.01851
C         -7.53306      -23.44848        0.31512
C         -6.28501      -23.83310       -0.11035
C         -6.03286      -25.18895        0.36913
O         -5.00183      -25.80608        0.18427
N         -7.16650      -25.56711        1.04137
C         -8.10348      -24.56916        1.06078
O         -9.21140      -24.56308        1.56129
C         -7.32245      -26.84513        1.69890
C         -6.84535      -26.78861        3.14006
C         -5.49098      -23.00881       -0.87594
C         -5.98991      -21.74324       -1.26071
C         -5.16064      -20.90710       -2.16735
C         -4.00802      -21.27240       -2.75161
H         -1.82944        1.80975       -4.24714
H         -4.00669       -1.72308       -6.99038
H         -2.81302        0.82983       -2.18405
H         -5.08203       -2.66249       -4.97072
H         -3.64202       -3.63429        0.85539
H         -3.10603       -8.43083       -0.47068
H         -5.68141       -8.47567       -0.43178
H         -6.91276       -3.67868        0.20433
H         -9.46348       -3.78848       -0.23042
H         -7.31443       -8.24060       -2.21852
H         -9.27186       -9.03297        0.02319
H         -7.46773      -10.57478        1.13898
H         -7.15229      -12.30893        1.09127
H         -9.93797      -11.09506        1.49120
H         -8.90705      -11.76989        2.76635
H         -9.54563      -12.81961        1.48940
H        -10.73325      -11.52615       -6.05541
H         -9.62740      -12.86159       -6.39112
H         -9.08900       -9.88621       -6.81332
H         -9.16615      -11.16258       -8.03014
H         -7.81083      -11.10994       -6.88102
H         -9.69137      -14.55709       -4.71415
H         -6.76538      -14.61029       -3.74973
H         -7.06412      -19.29920       -5.89863
H         -8.68112      -19.70535       -3.89546
H         -9.74444      -15.07438       -2.39361
H        -11.11863      -15.51332       -0.32003
H         -9.91503      -20.45600       -1.14424
H         -7.11465      -19.17139       -1.09759
H         -9.02488      -21.92867        0.41730
H         -6.74611      -27.59699        1.14973
H         -8.38060      -27.12595        1.66915
H         -5.77893      -26.54445        3.19016
H         -7.00019      -27.75422        3.63005
H         -7.38876      -26.02370        3.70438
H         -4.51433      -23.37621       -1.16927
H         -5.53245      -19.91518       -2.40444
H         -3.53508      -22.23884       -2.61560
H         -3.48480      -20.59195       -3.41686
