106

C         -4.92914       -0.93429        0.23578
C         -4.02547       -1.14805       -0.80187
F         -3.06361       -0.24316       -1.02774
C         -4.10763       -2.28923       -1.58648
F         -3.21272       -2.50423       -2.55987
C         -5.11741       -3.22074       -1.37241
C         -6.05749       -3.01317       -0.35260
C         -5.94390       -1.86792        0.49372
C         -6.81746       -1.70243        1.59194
C         -7.79792       -2.65370        1.83751
C         -7.92578       -3.72729        0.94415
C         -7.08608       -3.93338       -0.13843
C         -8.91474       -4.69182        1.44573
O         -9.40211       -5.60796        0.82063
C         -9.11339       -4.31253        2.88416
C         -8.72556       -2.89120        2.98373
C         -9.22103       -1.96810        3.83945
C        -10.18161       -2.28825        4.84925
N        -10.93452       -2.52619        5.68879
C         -8.85286       -0.59457        3.76483
N         -8.52961        0.51632        3.69383
C         -9.28110       -5.21353        3.86795
C         -9.46519       -6.65048        3.70927
C        -10.55062       -7.34861        4.13257
N        -11.64204       -6.77385        4.88718
O        -11.39147       -5.82112        5.63272
O        -12.75628       -7.30196        4.76863
C        -10.53939       -8.71388        3.66945
C         -9.44298       -8.89853        2.91964
C         -8.66865       -7.65303        2.91479
C         -7.47755       -7.47630        2.29541
C         -6.54428       -6.38429        2.57571
C         -5.54431       -6.44762        1.68494
C         -5.76874       -7.58823        0.82146
N         -4.88106       -7.90585       -0.29157
O         -3.91009       -7.15059       -0.45158
O         -5.12369       -8.87799       -1.01589
C         -6.88801       -8.26654        1.17448
C         -7.36775       -9.45730        0.51729
C         -8.55683       -9.61237       -0.09200
C         -8.80153      -10.75574       -0.91963
S         -9.78913      -10.55072       -2.32521
C         -9.36446      -12.08968       -3.01261
C         -8.51657      -12.75435       -2.14206
C         -8.32157      -12.05285       -0.89394
C         -7.58816      -12.57977        0.17946
C         -6.98587      -13.82505       -0.08936
C         -6.10742      -14.44235        0.96511
C         -7.12191      -14.47925       -1.35042
C         -7.89809      -13.98343       -2.42031
C         -9.91267      -12.40754       -4.29843
C        -10.18601      -13.66983       -4.66813
C        -10.76197      -13.96920       -6.00190
C        -10.97535      -15.48851       -6.23881
O        -11.66637      -16.33560       -5.70296
C         -9.72536      -14.05813       -7.15064
O         -8.99885      -13.23564       -7.67589
C         -9.99079      -15.57218       -7.42573
C        -10.64403      -15.80175       -8.74099
C        -11.46521      -16.81447       -9.06329
C        -12.30416      -16.59499      -10.29201
O        -12.12682      -15.79003      -11.18233
C        -13.44892      -17.50608      -10.16599
C        -14.48330      -17.62976      -11.08094
C        -15.45275      -18.61017      -10.84887
C        -15.38537      -19.40045       -9.66407
C        -16.33364      -20.41324       -9.46041
C        -17.32296      -20.64523      -10.40976
C        -17.39577      -19.86668      -11.55587
C        -16.47462      -18.84805      -11.77918
F        -18.34940      -20.09849      -12.46785
F        -18.19927      -21.63917      -10.21180
C        -14.35085      -19.19561       -8.72996
C        -13.34383      -18.27759       -8.99929
C        -12.00774      -18.00162       -8.37961
C        -11.34609      -18.91718       -7.62881
C         -9.92497      -18.99585       -7.62089
N         -8.77744      -19.15932       -7.67319
C        -11.99214      -19.98622       -6.94052
N        -12.52163      -20.84892       -6.37241
H         -4.82152       -0.03431        0.83603
H         -5.14604       -4.10731       -2.00159
H         -6.66344       -0.85850        2.25884
H         -7.19460       -4.82642       -0.74894
H         -9.26881       -4.89030        4.90953
H        -11.29671       -9.44727        3.90154
H         -9.16126       -9.83725        2.47707
H         -6.61365       -5.67315        3.38146
H         -4.69121       -5.78810        1.62281
H         -6.59699      -10.22040        0.42829
H         -9.28454       -8.80218       -0.09326
H         -7.46850      -12.09058        1.13550
H         -6.25625      -15.52532        0.99834
H         -6.34674      -14.04713        1.95851
H         -5.05702      -14.22453        0.74864
H         -6.59601      -15.42211       -1.50309
H         -7.94714      -14.51500       -3.35862
H        -10.13940      -11.57783       -4.96759
H        -10.03699      -14.50456       -3.99012
H        -11.64436      -13.37004       -6.24682
H         -9.11113      -16.19425       -7.24558
H        -10.49824      -14.99853       -9.46917
H        -14.49701      -17.00567      -11.97106
H        -16.29965      -21.05216       -8.58111
H        -16.55506      -18.26525      -12.69284
H        -14.34948      -19.80478       -7.83236
