140

C        -22.04719      -14.92628       -8.22970
C        -21.78458      -14.70458       -9.58359
F        -22.80953      -14.51021      -10.42458
C        -20.48306      -14.68113      -10.06530
F        -20.23773      -14.42165      -11.35637
C        -19.42087      -14.93933       -9.21524
C        -19.67082      -15.20949       -7.86599
C        -20.99521      -15.15116       -7.32880
C        -21.21987      -15.32131       -5.92904
C        -20.14895      -15.59731       -5.09395
C        -18.90883      -15.76863       -5.71556
C        -18.61664      -15.56544       -7.04735
C        -17.97413      -16.27551       -4.74721
O        -17.27918      -17.23871       -4.97903
C        -18.43160      -15.75731       -3.43686
C        -19.91796      -15.75756       -3.60931
C        -20.84425      -16.02881       -2.66092
C        -20.46908      -16.22267       -1.30070
N        -20.13579      -16.34053       -0.19499
C        -22.22628      -16.17174       -2.97153
N        -23.35095      -16.29315       -3.24575
C        -17.63813      -15.10431       -2.55277
C        -16.26222      -14.60697       -2.79849
C        -15.27281      -15.13180       -3.57115
N        -15.09428      -16.51221       -3.92083
O        -15.25990      -17.34890       -3.02377
O        -14.66363      -16.73642       -5.06431
C        -14.36534      -14.12270       -4.06476
C        -14.63771      -12.97055       -3.44776
C        -15.66227      -13.24594       -2.43872
C        -15.80693      -12.47807       -1.32937
C        -16.69838      -12.77431       -0.20877
C        -16.55774      -11.80236        0.70677
C        -15.55242      -10.86486        0.24808
N        -15.14501       -9.71563        1.03778
O        -14.14125       -9.07360        0.71103
O        -15.85409       -9.44538        2.01927
C        -15.04567      -11.22045       -0.95542
C        -13.97132      -10.54179       -1.66602
C        -12.69371      -10.95398       -1.70042
N        -11.66625      -10.38254       -2.43064
C        -10.24100      -10.35364       -2.04792
C         -9.63156      -11.70489       -1.74622
C        -10.16324      -12.89423       -2.25633
C         -9.72980      -14.14882       -1.80033
O        -10.19933      -15.33850       -2.28428
C        -11.30955      -15.25608       -3.16749
C        -11.71732      -16.65794       -3.55132
C         -8.76749      -14.23008       -0.78741
C         -8.17967      -13.03724       -0.35831
C         -8.50280      -11.80694       -0.93132
O         -7.70878      -10.69500       -0.82654
C         -6.39633      -10.87752       -0.28381
C         -5.45338      -11.78635       -1.07639
C         -8.23587      -15.55291       -0.26829
N         -8.08090      -15.55546        1.18514
C         -6.97817      -15.24875        1.95411
C         -5.69038      -15.11089        1.61769
C         -4.59703      -14.64246        2.47104
C         -3.46465      -15.32877        2.75836
N         -3.31578      -16.75750        2.59689
O         -4.32810      -17.46762        2.63714
O         -2.15906      -17.18645        2.48195
C         -2.37673      -14.44249        3.13176
C         -2.80490      -13.16830        3.07339
C         -4.24202      -13.21526        2.79477
C         -5.10427      -12.20437        3.03351
C         -6.41281      -12.48531        3.61741
C         -7.03669      -11.32297        3.81759
C         -6.15853      -10.27057        3.37368
N         -6.65505       -8.93773        3.31632
O         -6.20104       -8.12967        4.12860
O         -7.55755       -8.71789        2.49477
C         -4.95674      -10.70328        2.92360
C         -3.83254      -10.01338        2.29674
C         -3.57012       -8.77126        1.85740
C         -4.39960       -7.59481        1.76650
C         -3.98597       -6.32022        1.79522
C         -4.92900       -5.20860        1.40567
O         -6.14066       -5.21198        1.40714
C         -4.05833       -4.13579        0.88181
C         -4.45511       -3.00413        0.19208
C         -3.47896       -2.31204       -0.53744
C         -2.13888       -2.81045       -0.58003
C         -1.21729       -2.22350       -1.45662
C         -1.58921       -1.12702       -2.22637
C         -2.86127       -0.58389       -2.11305
C         -3.80944       -1.16936       -1.27960
F         -3.19577        0.49953       -2.82666
F         -0.70438       -0.60182       -3.08445
C         -1.75758       -3.89697        0.22673
C         -2.71896       -4.52836        0.99534
C         -2.66242       -5.70885        1.88551
C         -1.70065       -5.93187        2.81166
C         -1.81572       -6.94580        3.80721
N         -1.86813       -7.77777        4.61530
C         -0.55728       -5.08562        2.91788
N          0.36357       -4.38231        2.98795
H        -23.08188      -14.93276       -7.89891
H        -18.41094      -14.92962       -9.61805
H        -22.23115      -15.22553       -5.54423
H        -17.60165      -15.69893       -7.41225
H        -18.13178      -14.63583       -1.70808
H        -13.66360      -14.26876       -4.87196
H        -14.16979      -12.03000       -3.67629
H        -17.32908      -13.63507       -0.07334
H        -17.06087      -11.74222        1.66188
H        -14.23432       -9.60405       -2.15150
H        -12.39108      -11.83571       -1.13876
H        -11.78869      -10.47606       -3.43618
H        -10.16767       -9.71781       -1.15625
H         -9.67063       -9.86399       -2.84577
H        -10.93602      -12.80821       -3.01223
H        -11.03942      -14.70883       -4.07879
H        -12.14387      -14.75947       -2.65991
H        -12.26428      -17.13075       -2.72960
H        -10.84961      -17.28078       -3.77822
H        -12.35486      -16.62789       -4.43333
H         -7.40308      -13.10045        0.39286
H         -6.49260      -11.22010        0.74446
H         -5.93733       -9.88488       -0.23639
H         -5.85965      -12.78213       -1.27203
H         -4.51879      -11.92893       -0.52314
H         -5.22266      -11.35446       -2.05308
H         -7.29313      -15.78442       -0.77614
H         -8.93466      -16.36073       -0.50880
H         -8.97137      -15.46154        1.67028
H         -7.28451      -15.11083        2.98529
H         -5.39498      -15.33682        0.59370
H         -1.38684      -14.77828        3.40629
H         -2.22057      -12.31009        3.36632
H         -6.75426      -13.43033        4.00142
H         -7.98709      -11.17501        4.30093
H         -2.98388      -10.68121        2.14497
H         -2.56315       -8.62464        1.45860
H         -5.44476       -7.75852        1.51945
H         -5.50421       -2.72035        0.16650
H         -0.21196       -2.62036       -1.57019
H         -4.80332       -0.73205       -1.23371
H         -0.73371       -4.26197        0.20213
