114

C        -13.03551       -3.97673        3.55662
C        -13.47152       -4.52136        4.76180
F        -14.78590       -4.57746        5.01899
C        -12.56035       -5.00859        5.68742
F        -12.98662       -5.54930        6.83650
C        -11.19517       -4.94479        5.43178
C        -10.73054       -4.39054        4.23048
C        -11.66258       -3.90921        3.26391
C        -11.20313       -3.39036        2.03030
C         -9.83853       -3.33863        1.76568
C         -8.95495       -3.81157        2.74537
C         -9.36002       -4.32533        3.96498
C         -7.57011       -3.78109        2.25337
O         -6.58088       -3.95030        2.93532
C         -7.67417       -3.48724        0.78506
C         -9.03122       -2.92734        0.57113
C         -9.43187       -2.08568       -0.40910
C        -10.73747       -1.51832       -0.45863
N        -11.81024       -1.06663       -0.49030
C         -8.54410       -1.65160       -1.43584
N         -7.80731       -1.31857       -2.26739
C         -6.77765       -3.91618       -0.12271
C         -5.62105       -4.67528        0.23876
S         -5.68767       -6.38671        0.14547
C         -4.12033       -6.57751        0.82064
C         -3.50085       -5.34829        1.00225
C         -4.37247       -4.24738        0.66385
C         -3.97272       -2.81242        0.84765
C         -2.45933       -2.62227        0.99226
C         -1.81767       -2.35245       -0.35060
O         -1.63586       -1.21199       -0.76095
O         -1.50405       -3.41137       -1.11519
C         -1.78312       -3.68568        1.86249
O         -2.17568       -3.48590        3.23168
C         -2.08718       -5.14628        1.49064
C         -3.63822       -7.88559        1.10588
C         -2.95822       -8.66437        0.23128
N         -2.62694       -8.31023       -1.12713
O         -2.53517       -9.24660       -1.93294
O         -2.39417       -7.12278       -1.39248
C         -2.57135       -9.92557        0.81941
C         -2.98965       -9.94527        2.09224
C         -3.64629       -8.66473        2.38740
C         -4.12682       -8.29398        3.59752
C         -4.97117       -7.12446        3.85313
C         -5.20761       -7.05532        5.17197
C         -4.53389       -8.15958        5.81389
N         -4.52020       -8.34654        7.24991
O         -4.40009       -9.49152        7.70432
O         -4.66126       -7.32752        7.94014
C         -3.90538       -8.95625        4.92134
C         -3.17189      -10.15830        5.24344
C         -1.85954      -10.36812        5.04138
C         -1.25526      -11.62963        5.35754
C          0.06054      -11.90688        5.75753
C          1.03597      -10.86845        5.89483
N          1.80495      -10.00771        6.02084
C          0.16253      -13.25057        6.17064
C         -0.98319      -13.95310        6.05327
S         -2.19030      -13.11949        5.27509
S         -0.94990      -15.47603        6.77537
C          0.61310      -15.14935        7.31447
C          1.12730      -14.00055        6.83067
C          2.49200      -13.84374        7.10073
C          3.38379      -12.98913        6.38276
N          4.12255      -12.31837        5.79253
C          2.87897      -14.70788        8.13634
S          1.64621      -15.95433        8.34428
C          4.06219      -14.83435        8.93357
C          4.89599      -13.84013        9.27540
C          6.27146      -14.21576        9.76853
O          6.61115      -15.24129       10.31819
C          7.14807      -13.10651        9.32901
C          8.53050      -13.05611        9.37010
C          9.16672      -11.97908        8.73197
C          8.39077      -11.02440        8.00287
C          9.03400       -9.99378        7.30571
C         10.41592       -9.86775        7.37244
C         11.16944      -10.76432        8.11711
C         10.55940      -11.82414        8.78379
F         12.49826      -10.61586        8.20275
F         11.01306       -8.86071        6.72095
C          6.99057      -11.10414        7.99928
C          6.37330      -12.10597        8.72665
C          4.94985      -12.40461        8.99734
C          3.99659      -11.46834        9.22616
C          2.72442      -11.81154        9.76758
N          1.68506      -12.10822       10.18777
C          4.22501      -10.07741        9.00426
N          4.43358       -8.95172        8.81826
H        -13.78289       -3.61090        2.85716
H        -10.50990       -5.33854        6.17802
H        -11.93914       -3.07217        1.29711
H         -8.62017       -4.69269        4.67104
H         -6.94893       -3.80928       -1.18923
H         -4.46091       -2.44911        1.76015
H         -4.36354       -2.20358        0.02255
H         -2.33696       -1.66934        1.53057
H         -1.84231       -4.28952       -0.86405
H         -0.69710       -3.53847        1.84222
H         -3.10825       -3.75563        3.33158
H         -1.90558       -5.79225        2.35865
H         -1.39631       -5.47535        0.70552
H         -2.07276      -10.72813        0.29599
H         -2.91161      -10.80644        2.73203
H         -5.41755       -6.46216        3.13114
H         -5.83590       -6.33807        5.67864
H         -3.79343      -10.92923        5.69964
H         -1.23041       -9.57121        4.64689
H          4.32639      -15.84638        9.24998
H          9.09175      -13.84051        9.87106
H          8.47243       -9.26986        6.72004
H         11.18412      -12.50949        9.34994
H          6.40767      -10.38823        7.42382
