133

C        -11.01485        0.62195        4.22784
C        -11.73108        0.31871        5.38448
F        -12.85532        0.99505        5.65592
C        -11.30131       -0.68542        6.24045
F        -12.00940       -0.99060        7.33580
C        -10.14220       -1.39821        5.96270
C         -9.40723       -1.11626        4.80406
C         -9.84999       -0.09528        3.90695
C         -9.14122        0.14874        2.70669
C         -8.02621       -0.62422        2.39871
C         -7.62857       -1.61752        3.30537
C         -8.26994       -1.86476        4.50423
C         -6.56667       -2.45627        2.73129
O         -5.91788       -3.28229        3.33550
C         -6.51625       -2.07264        1.28400
C         -7.14634       -0.73406        1.19944
C         -6.85172        0.27211        0.33076
C         -7.42139        1.57437        0.45649
N         -7.91113        2.63115        0.56326
C         -5.87417        0.11310       -0.69535
N         -5.08622       -0.00516       -1.53237
C         -6.21994       -2.95410        0.31157
C         -5.83598       -4.38058        0.51570
C         -6.84300       -5.35393        0.48336
C         -6.52177       -6.70860        0.60595
C         -5.18756       -7.11859        0.75985
C         -4.17029       -6.14731        0.84983
C         -4.50573       -4.76521        0.72735
N         -3.55930       -3.80921        0.82222
C         -2.28628       -4.18274        1.09091
C         -1.33028       -3.03905        1.30306
C         -1.27782       -2.58733        2.75611
C         -1.94734       -5.53128        1.20488
C         -0.55666       -6.01088        1.52465
C         -0.34140       -6.22541        3.01586
N         -2.88387       -6.51043        1.06519
C         -4.89783       -8.56951        0.72006
N         -4.90627       -9.45265        1.82782
C         -5.15767       -9.08340        3.21301
C         -5.07068      -10.23449        4.21854
C         -4.65889      -10.78147        1.42106
O         -4.58278      -11.82848        2.03086
C         -4.52432      -10.65004       -0.02071
C         -4.67011       -9.27737       -0.40110
C         -4.55463       -9.25175       -1.88331
O         -4.66201       -8.28424       -2.60856
N         -4.34590      -10.61715       -2.22157
C         -4.29455      -11.10727       -3.58797
C         -5.66550      -11.48815       -4.12554
C         -4.34738      -11.41697       -1.08926
C         -4.25482      -12.84411       -1.05704
C         -3.20692      -13.55841       -1.49568
C         -3.10947      -14.97601       -1.32823
S         -4.36081      -15.88958       -0.59249
C         -3.49333      -17.36393       -0.63022
C         -2.19620      -17.12935       -1.08005
C         -2.07956      -15.82520       -1.71504
C         -0.88941      -15.45625       -2.58804
N         -1.31161      -15.00247       -3.98640
O         -0.57784      -14.17336       -4.54138
O         -2.32133      -15.51226       -4.49095
C          0.07899      -16.63729       -2.79758
C          0.29782      -17.41390       -1.49914
C         -1.01014      -18.07153       -1.03054
N         -0.73675      -18.59908        0.37685
O         -0.87067      -17.82430        1.33299
O         -0.36763      -19.78114        0.45488
C         -4.19893      -18.51222       -0.15014
C         -3.73063      -19.75810       -0.27574
C         -4.37616      -20.94212        0.23667
C         -3.87831      -22.18324        0.13616
C         -4.42150      -23.24854        1.03726
O         -5.49751      -23.28059        1.59390
C         -3.33196      -24.23407        1.16517
C         -3.33931      -25.36270        1.96332
C         -2.19074      -26.16060        1.97762
C         -1.02946      -25.75628        1.24878
C          0.12098      -26.55628        1.29539
C          0.11003      -27.75088        2.00805
C         -1.02827      -28.15539        2.69142
C         -2.17184      -27.36423        2.69289
F         -1.03965      -29.32099        3.35164
F          1.20800      -28.51871        2.01441
C         -1.05645      -24.58855        0.46429
C         -2.23618      -23.86564        0.36920
C         -2.66830      -22.73382       -0.48995
C         -2.23624      -22.52686       -1.75619
C         -2.94576      -21.70194       -2.67762
N         -3.50421      -21.02694       -3.43841
C         -1.10594      -23.19619       -2.30856
N         -0.17383      -23.72525       -2.75375
H        -11.39320        1.40855        3.58009
H         -9.83935       -2.18674        6.64635
H         -9.51879        0.90174        2.01848
H         -7.91846       -2.66769        5.14719
H         -6.32013       -2.68932       -0.73870
H         -7.88356       -5.06689        0.34690
H         -7.32039       -7.44690        0.55726
H         -1.66466       -2.18743        0.69599
H         -0.32916       -3.28160        0.93692
H         -2.25592       -2.23336        3.09866
H         -0.55743       -1.77238        2.87514
H         -0.97077       -3.38993        3.42654
H          0.19584       -5.32505        1.12557
H         -0.38472       -6.96363        1.00814
H         -0.71055       -5.39482        3.61883
H          0.72546       -6.34581        3.22890
H         -0.86155       -7.12397        3.36201
H         -6.16373       -8.65378        3.26362
H         -4.43461       -8.31128        3.49422
H         -5.82491      -11.00218        4.00582
H         -5.24287       -9.88451        5.23936
H         -4.08322      -10.71077        4.19530
H         -3.62512      -11.97093       -3.64570
H         -3.85944      -10.32616       -4.21855
H         -6.13534      -12.26700       -3.51521
H         -5.57681      -11.87063       -5.14770
H         -6.33523      -10.62315       -4.13913
H         -5.08602      -13.31455       -0.53425
H         -2.36599      -13.03075       -1.93919
H         -0.35571      -14.60879       -2.14041
H          1.04216      -16.26706       -3.17037
H         -0.30065      -17.32975       -3.56222
H          0.69692      -16.73395       -0.73499
H          1.05965      -18.18841       -1.65603
H         -1.20739      -18.94135       -1.66739
H         -5.17632      -18.35819        0.30762
H         -2.78204      -19.92739       -0.74980
H         -5.26854      -20.77836        0.84387
H         -4.22683      -25.61385        2.53763
H          1.02696      -26.27902        0.76220
H         -3.04550      -27.71133        3.23792
H         -0.16130      -24.28932       -0.07476
