117

C         -8.67799        2.40394       -2.42447
C         -9.28859        2.38965       -3.67637
F         -9.50579        3.55005       -4.31047
C         -9.66147        1.19155       -4.26829
F        -10.23391        1.18716       -5.47989
C         -9.44367       -0.01483       -3.61306
C         -8.83925       -0.02617       -2.34672
C         -8.43230        1.20288       -1.74230
C         -7.76913        1.20142       -0.49352
C         -7.51428       -0.00327        0.14627
C         -7.95250       -1.18770       -0.46337
C         -8.60843       -1.23297       -1.68241
C         -7.50750       -2.34780        0.31830
O         -7.98431       -3.46207        0.27503
C         -6.42989       -1.81229        1.22409
C         -6.74576       -0.37199        1.37313
C         -6.53242        0.40628        2.45861
C         -6.97039        1.75445        2.53655
N         -7.32655        2.85431        2.58423
C         -5.90784       -0.11358        3.63871
N         -5.39519       -0.54955        4.57705
C         -5.29402       -2.45138        1.57247
C         -4.93523       -3.75569        1.14571
S         -3.90670       -4.82613        2.01159
C         -4.39418       -6.25470        1.06981
C         -5.00519       -5.73765       -0.04477
C         -5.19119       -4.36834       -0.02363
O         -5.67702       -3.76260       -1.14209
C         -5.91705       -4.87394       -1.91142
N         -6.42834       -4.58209       -3.21956
O         -6.59739       -5.54566       -3.97850
O         -6.65237       -3.39604       -3.49965
C         -5.59353       -6.08895       -1.29565
C         -3.99481       -7.56158        1.49166
N         -3.83352       -8.03437        2.81763
C         -4.08220       -7.38275        4.09207
C         -5.53600       -7.06684        4.41153
C         -3.29771       -9.34481        2.83082
O         -2.97394      -10.05291        3.76436
C         -3.20321       -9.67913        1.41277
C         -3.65661       -8.55002        0.64745
C         -3.52466       -8.93642       -0.77225
O         -3.72887       -8.22525       -1.73247
N         -3.11566      -10.28643       -0.71771
C         -2.86587      -11.11467       -1.89151
C         -3.77859      -10.81963       -3.07486
C         -2.84647      -10.66998        0.59485
C         -2.34232      -11.96564        0.96082
C         -1.25312      -12.18226        1.71424
C         -0.86051      -13.46748        2.21457
S          0.81629      -13.85293        2.21843
C         -1.57058      -14.51849        2.78569
C         -3.03439      -14.68557        2.77119
O         -3.80728      -14.20416        1.95471
C         -3.49611      -15.55475        3.82912
C         -4.79994      -15.74891        4.22832
N         -4.76929      -16.53549        5.34588
C         -5.92082      -16.78902        6.19423
C         -6.02683      -15.75463        7.30325
C         -3.48357      -16.95742        5.58514
C         -2.65549      -16.33899        4.66706
C         -1.20038      -16.38320        4.55369
O         -0.48844      -17.09402        5.25251
C         -0.68558      -15.39537        3.57881
C          0.66003      -15.16659        3.31083
C          1.83271      -15.87361        3.74293
C          2.51878      -15.57370        4.85781
C          3.51314      -16.53884        5.46316
O          4.12960      -17.42625        4.90157
C          3.55737      -16.19249        6.90999
C          4.34824      -16.74356        7.90712
C          4.21072      -16.24098        9.21616
C          3.18522      -15.28759        9.50266
C          3.00896      -14.82089       10.81193
C          3.88035      -15.22276       11.81528
C          4.91659      -16.10192       11.53488
C          5.07520      -16.62967       10.25376
F          5.78612      -16.44020       12.49681
F          3.72553      -14.72904       13.05106
C          2.39875      -14.76168        8.46981
C          2.66609      -15.14003        7.16661
C          2.31068      -14.53223        5.86106
C          2.37516      -13.18712        5.67296
C          2.82543      -12.60885        4.44743
N          3.26839      -12.09367        3.51019
C          2.24157      -12.26122        6.74159
N          2.11765      -11.50977        7.62343
H         -8.39336        3.36313       -2.00027
H         -9.73753       -0.93699       -4.10861
H         -7.42924        2.14638       -0.07958
H         -8.87591       -2.19004       -2.12277
H         -4.55749       -1.95002        2.19445
H         -5.73057       -7.05971       -1.74941
H         -3.44888       -6.49798        4.18484
H         -3.73927       -8.05888        4.88599
H         -5.93325       -6.27018        3.77919
H         -5.61282       -6.72881        5.45274
H         -6.17808       -7.94639        4.30219
H         -3.01709      -12.16666       -1.62201
H         -1.81692      -10.98773       -2.17694
H         -4.82713      -10.98809       -2.80738
H         -3.52769      -11.46212       -3.92336
H         -3.67870       -9.78979       -3.42433
H         -2.94274      -12.78562        0.58896
H         -0.63573      -11.33222        2.00814
H         -5.72244      -15.32737        3.84458
H         -5.82078      -17.79907        6.60212
H         -6.81361      -16.76236        5.55911
H         -5.17457      -15.82677        7.98746
H         -6.94340      -15.90556        7.88037
H         -6.03987      -14.73525        6.90039
H         -3.25322      -17.61254        6.41568
H          2.08432      -16.78517        3.19854
H          5.08302      -17.50703        7.66280
H          2.22197      -14.11354       11.06012
H          5.89989      -17.31447       10.07626
H          1.64364      -14.01179        8.69150
