128

C        -12.83589        2.03295       -3.71732
C        -13.53142        2.66720       -2.68703
F        -14.36503        3.67198       -2.98517
C        -13.39885        2.24699       -1.37019
F        -14.10932        2.82854       -0.39489
C        -12.55826        1.19348       -1.05299
C        -11.88473        0.52257       -2.07562
C        -12.01938        0.92861       -3.44056
C        -11.41930        0.17309       -4.48081
C        -10.79260       -1.02390       -4.16961
C        -10.72508       -1.38459       -2.81709
C        -11.17286       -0.61853       -1.75965
C        -10.42364       -2.79821       -2.67096
O        -10.38344       -3.37380       -1.60368
C        -10.31972       -3.34330       -4.06736
C        -10.31068       -2.18145       -4.98778
C         -9.81943       -2.13791       -6.25246
C         -9.24152       -3.27093       -6.89807
N         -8.75901       -4.20591       -7.39887
C         -9.76493       -0.92014       -7.00474
N         -9.73009        0.07115       -7.59488
C        -10.38280       -4.66194       -4.30661
C        -10.47031       -5.68689       -3.28417
C        -11.51557       -6.52278       -3.05018
N        -12.72691       -6.57423       -3.83726
O        -12.67631       -6.23326       -5.02672
O        -13.74428       -6.99971       -3.27164
C        -11.29897       -7.36548       -1.89634
C        -10.07101       -7.11693       -1.42158
C         -9.44103       -6.10003       -2.28260
C         -8.16839       -5.66746       -2.12568
C         -7.55616       -4.44044       -2.62117
C         -6.39173       -4.27183       -1.97380
C         -6.12103       -5.46553       -1.20112
N         -4.82608       -5.74523       -0.61315
O         -3.91307       -4.94993       -0.87901
O         -4.70309       -6.72203        0.13735
C         -7.11644       -6.36597       -1.34404
C         -7.04459       -7.78469       -1.07097
C         -7.27488       -8.71110       -2.01301
C         -7.22033      -10.15127       -1.91893
N         -6.90683      -10.93269       -0.79298
C         -6.70822      -10.42865        0.55683
C         -6.35460      -11.44986        1.61891
C         -6.97807      -12.31533       -1.09404
O         -6.81755      -13.30004       -0.41827
C         -7.36030      -12.32384       -2.50915
C         -7.50760      -10.96895       -2.93466
C         -7.97690      -10.99911       -4.32767
O         -8.27312      -10.01734       -4.97634
N         -8.06274      -12.38963       -4.61441
C         -8.63754      -12.93347       -5.83563
C         -9.29617      -11.92772       -6.76732
C         -7.67214      -13.15769       -3.50534
C         -7.71143      -14.59493       -3.35214
C         -7.54637      -15.54624       -4.28770
C         -7.60278      -16.97976       -3.93476
C         -6.38495      -17.55905       -3.51076
C         -6.39908      -18.88038       -3.10962
C         -7.55349      -19.62412       -3.12256
C         -7.24008      -20.96441       -2.63960
O         -8.04958      -21.86629       -2.57185
N         -5.91004      -20.95452       -2.32322
C         -5.33141      -19.74941       -2.62066
O         -4.16519      -19.40926       -2.54172
C         -5.17681      -22.11745       -1.86193
C         -5.68714      -22.63917       -0.52783
C         -8.75486      -19.10403       -3.55105
C         -8.80766      -17.75828       -3.97621
C        -10.10001      -17.21427       -4.47563
C        -11.25950      -17.89779       -4.48096
C        -12.47337      -17.35199       -4.97941
S        -13.51390      -16.56598       -3.86262
C        -14.68466      -16.16612       -5.06719
C        -14.16060      -16.40975       -6.33035
C        -13.05375      -17.37440       -6.23494
C        -12.57001      -18.13316       -7.32831
C        -11.77355      -19.41475       -7.33226
F        -11.61250      -20.00533       -6.11810
F        -12.38426      -20.37184       -8.09646
F        -10.52810      -19.27088       -7.85862
C        -13.09904      -17.66353       -8.56077
C        -14.07869      -16.63969       -8.67854
C        -14.69250      -16.00078       -7.57836
O        -15.71236      -15.13701       -7.91384
C        -15.89197      -13.98921       -7.10158
C        -15.91237      -15.62724       -4.59153
C        -16.97210      -16.40973       -4.34981
H        -12.99078        2.37912       -4.73526
H        -12.49247        0.86681       -0.01788
H        -11.57048        0.48028       -5.51252
H        -11.09333       -0.99414       -0.74209
H        -10.43379       -5.04938       -5.32154
H        -12.03783       -8.02088       -1.45894
H         -9.66949       -7.51832       -0.50373
H         -7.95071       -3.73014       -3.31677
H         -5.71073       -3.44018       -2.07387
H         -6.77192       -8.02028       -0.05558
H         -7.54520       -8.35805       -3.01324
H         -7.63565       -9.92179        0.85312
H         -5.88758       -9.70749        0.52843
H         -7.16535      -12.17136        1.75559
H         -6.18621      -10.95267        2.57764
H         -5.43956      -11.98439        1.34626
H         -9.39456      -13.67122       -5.54564
H         -7.84119      -13.44837       -6.38167
H        -10.14021      -11.43410       -6.27391
H         -9.67213      -12.42636       -7.66499
H         -8.58422      -11.16340       -7.09343
H         -7.84821      -14.92056       -2.31762
H         -7.30671      -15.32224       -5.31940
H         -5.45585      -16.99640       -3.48549
H         -4.11477      -21.86389       -1.77435
H         -5.27875      -22.89876       -2.62299
H         -5.60823      -21.87240        0.24954
H         -5.10509      -23.51122       -0.21490
H         -6.73664      -22.94414       -0.58899
H         -9.61252      -19.76636       -3.54218
H        -10.07627      -16.19397       -4.86059
H        -11.34462      -18.90763       -4.09867
H        -12.76524      -18.14489       -9.48477
H        -14.40757      -16.36693       -9.68281
H        -16.84454      -14.09514       -6.57407
H        -15.97910      -13.10928       -7.74428
H        -15.07028      -13.79611       -6.40612
H        -15.97794      -14.56098       -4.40068
H        -16.95324      -17.48667       -4.48681
H        -17.89963      -15.97316       -3.98960
