126

C        -13.47245        0.24924        3.48366
C        -13.42782        0.28044        4.87877
F        -14.49229        0.72367        5.56196
C        -12.30356       -0.16134        5.56009
F        -12.29893       -0.21897        6.89905
C        -11.16996       -0.54977        4.86065
C        -11.17125       -0.53887        3.46049
C        -12.36695       -0.21480        2.74586
C        -12.42616       -0.42196        1.34241
C        -11.31377       -0.94670        0.69149
C        -10.12592       -1.12527        1.41704
C        -10.01565       -0.90620        2.77302
C         -9.12477       -1.81654        0.59258
O         -7.92012       -1.79992        0.70716
C         -9.93073       -2.46651       -0.47960
C        -11.08630       -1.55317       -0.65502
C        -11.61513       -1.12522       -1.82405
C        -11.16899       -1.65799       -3.07036
N        -10.78415       -2.10455       -4.06455
C        -12.50910       -0.02068       -1.88349
N        -13.21723        0.90566       -1.91362
C         -9.70515       -3.73288       -0.88505
C         -8.66845       -4.64896       -0.37446
C         -8.53284       -5.14445        0.88933
N         -9.36281       -4.80398        2.01201
O        -10.58932       -4.92665        1.89268
O         -8.77757       -4.44459        3.04205
C         -7.48254       -6.13064        1.01674
C         -6.98431       -6.36506       -0.20230
C         -7.71161       -5.50869       -1.14634
C         -7.38090       -5.50821       -2.44928
C         -7.17840       -4.31914       -3.26201
C         -6.59293       -4.72483       -4.40475
C         -6.54125       -6.17657       -4.41601
N         -6.31288       -6.95458       -5.61743
O         -6.80572       -8.08945       -5.70052
O         -5.65483       -6.41271       -6.51545
C         -6.97752       -6.69773       -3.25088
C         -7.23822       -8.10107       -2.96635
C         -8.44675       -8.57964       -2.62436
C         -8.63291       -9.94906       -2.28662
S         -8.43050      -10.38102       -0.64402
C         -8.82419      -12.01448       -0.94812
C         -9.00544      -12.25899       -2.29399
C         -9.06655      -11.04366       -3.03172
C         -9.52346      -11.08379       -4.45838
C        -10.57742      -10.00079       -4.62171
N        -11.45177       -9.10235       -4.75721
C        -10.09212      -12.40964       -4.95395
C         -9.20353      -13.54382       -4.48335
C         -9.23611      -13.58821       -2.95707
C         -8.18272      -14.57122       -2.47285
N         -7.30885      -15.38670       -2.07115
C         -8.87383      -12.89019        0.15573
C         -9.69198      -13.95620        0.19050
C         -9.63728      -14.88748        1.25433
S         -8.15564      -15.13079        2.04845
C         -8.78944      -16.31454        3.09672
C        -10.03632      -16.72124        2.64122
C        -10.62513      -15.67327        1.82744
C        -12.12531      -15.55105        1.62432
N        -12.69486      -14.22473        2.15644
O        -13.85652      -13.95192        1.82222
O        -11.99136      -13.53462        2.90669
C        -12.91774      -16.65304        2.35255
C        -12.19531      -17.99522        2.32358
C        -10.83216      -17.94003        3.05297
N        -10.08907      -19.24453        2.73730
O        -10.30492      -19.79613        1.64741
O         -9.33761      -19.68289        3.61750
C         -8.04532      -16.66328        4.25709
C         -6.70420      -16.56310        4.28333
C         -5.91875      -16.66101        5.48404
C         -6.00454      -15.83519        6.53458
C         -5.44269      -16.32637        7.82825
O         -4.54837      -17.12437        8.00902
C         -6.29145      -15.70583        8.85791
C         -6.21633      -15.93489       10.21600
C         -7.13571      -15.27194       11.03172
C         -8.16637      -14.46990       10.44794
C         -9.08738      -13.82091       11.27679
C         -8.96619      -13.92394       12.65713
C         -7.95007      -14.68249       13.22378
C         -7.04472      -15.36961       12.42334
F         -7.82357      -14.74905       14.55534
F         -9.83227      -13.26587       13.43849
C         -8.23060      -14.29314        9.05818
C         -7.24141      -14.85257        8.27014
C         -6.87739      -14.69194        6.84267
C         -7.02467      -13.53038        6.15569
C         -6.20284      -13.24012        5.01953
N         -5.50534      -12.95651        4.15077
C         -7.85108      -12.45745        6.60089
N         -8.55061      -11.60165        6.98477
H        -14.38633        0.57433        2.99342
H        -10.30670       -0.90155        5.42034
H        -13.36642       -0.25869        0.81948
H         -9.07911       -1.11748        3.28072
H        -10.40836       -4.20424       -1.57390
H         -7.12264       -6.53970        1.94904
H         -6.09773       -6.94318       -0.42173
H         -7.28241       -3.29868       -2.92849
H         -6.18642       -4.10248       -5.18805
H         -6.38726       -8.77132       -3.07746
H         -9.30800       -7.92546       -2.52250
H         -8.66162      -10.81568       -5.08517
H        -10.15469      -12.40515       -6.04898
H        -11.11531      -12.56616       -4.58552
H         -8.18116      -13.39572       -4.85641
H         -9.55480      -14.49647       -4.89750
H        -10.22024      -13.96266       -2.65337
H         -8.19138      -12.65676        0.96668
H        -10.36808      -14.18994       -0.61992
H        -12.35038      -15.57245        0.55341
H        -13.89662      -16.75987        1.86611
H        -13.11299      -16.37689        3.39637
H        -12.07662      -18.26913        1.26598
H        -12.82818      -18.76416        2.78094
H        -10.98643      -17.93108        4.13794
H         -8.60755      -16.88191        5.16094
H         -6.13666      -16.36320        3.37556
H         -5.28639      -17.55007        5.54740
H         -5.44474      -16.58786       10.61436
H         -9.88352      -13.20411       10.86722
H         -6.25976      -15.95082       12.89965
H         -9.02688      -13.69087        8.63042
