104

C         -5.93349        1.69889        0.21162
C         -6.91477        2.47431        0.83175
F         -6.77067        3.80556        0.86371
C         -8.05002        1.88931        1.37689
F         -8.99396        2.64300        1.95564
C         -8.24852        0.52285        1.27754
C         -7.32507       -0.24985        0.57090
C         -6.12002        0.31884        0.05640
C         -5.19502       -0.48379       -0.66371
C         -5.53912       -1.78542       -0.99726
C         -6.80638       -2.21884       -0.60241
C         -7.65493       -1.55318        0.25813
C         -7.22207       -3.36101       -1.39458
O         -8.37248       -3.73728       -1.47888
C         -5.99366       -3.85483       -2.09633
C         -4.91120       -2.87411       -1.82250
C         -3.59764       -2.97282       -2.12847
C         -3.03745       -4.09050       -2.82180
N         -2.57226       -5.01444       -3.34925
C         -2.63832       -2.00115       -1.71316
N         -1.86179       -1.21753       -1.36801
C         -6.02064       -5.02001       -2.75865
C         -7.18679       -5.87141       -2.92445
C         -7.81651       -6.12787       -4.10097
N         -7.42924       -5.58723       -5.38650
O         -8.29224       -5.58908       -6.27828
O         -6.27166       -5.17385       -5.54103
C         -8.97838       -6.96463       -3.92470
C         -9.09099       -7.26533       -2.62491
C         -7.96595       -6.64659       -1.89996
C         -7.80806       -6.74992       -0.55584
C         -7.00848       -5.89031        0.30513
C         -7.56853       -5.92290        1.52515
C         -8.53784       -7.00648        1.55480
N         -9.07245       -7.49139        2.81057
O         -9.18345       -6.65333        3.71791
O         -9.36141       -8.68797        2.92781
C         -8.57052       -7.64855        0.36511
C         -8.99271       -9.01361        0.09380
C         -8.39411       -9.74816       -0.85800
C         -8.57894      -11.14038       -1.09687
N         -8.22535      -12.14441       -0.19337
C         -7.82100      -11.89251        1.18653
C         -6.85746      -12.90211        1.78536
C         -8.43768      -13.42158       -0.75935
O         -8.28221      -14.53244       -0.29634
C         -8.89358      -13.10536       -2.12958
C         -8.96727      -11.68364       -2.24952
C         -9.41029      -11.35692       -3.60910
O         -9.59299      -10.24902       -4.07205
N         -9.55351      -12.63169       -4.21474
C        -10.00007      -12.67156       -5.59487
C         -9.88016      -13.94012       -6.41880
C         -9.24392      -13.64605       -3.29884
C         -9.23793      -15.04839       -3.56576
C        -10.33303      -15.73507       -3.91064
C        -10.26296      -17.11333       -4.24889
C        -11.02295      -18.16530       -3.73775
C        -11.88290      -17.96468       -2.61134
N        -12.52261      -17.75089       -1.66799
C        -10.70599      -19.35370       -4.41410
C         -9.68601      -19.23111       -5.29117
S         -9.14522      -17.66751       -5.47343
S         -9.17878      -20.68477       -5.97756
C        -10.36506      -21.48322       -5.08489
C        -11.14759      -20.66722       -4.34737
C        -12.23585      -21.31572       -3.74280
C        -13.38431      -20.69673       -3.15336
N        -14.35419      -20.20227       -2.75137
C        -12.10900      -22.70065       -3.89865
S        -10.76320      -23.09397       -4.94341
C        -12.93829      -23.74592       -3.32921
S        -13.34373      -25.16561       -4.21408
C        -14.27835      -25.79261       -2.93125
C        -14.30454      -24.94683       -1.84570
C        -13.52150      -23.77745       -2.07205
O        -13.31965      -22.77913       -1.18424
C        -15.02445      -25.25563       -0.65250
N        -15.60798      -25.47690        0.32615
H         -5.06681        2.20138       -0.20884
H         -9.15955        0.09211        1.68582
H         -4.27837       -0.02654       -1.02550
H         -8.59964       -2.00395        0.55140
H         -5.15275       -5.40164       -3.28755
H         -9.66095       -7.25816       -4.70845
H         -9.91443       -7.81795       -2.20009
H         -6.16318       -5.28759        0.04179
H         -7.25575       -5.36384        2.39492
H         -9.70543       -9.49153        0.76043
H         -7.65801       -9.31047       -1.52997
H         -8.73167      -11.83655        1.79240
H         -7.32270      -10.91763        1.23585
H         -7.32843      -13.87977        1.91395
H         -6.53532      -12.56279        2.77584
H         -5.96831      -13.02085        1.15869
H         -9.44026      -11.88952       -6.12344
H        -11.04652      -12.34132       -5.59874
H         -8.91252      -14.43100       -6.29005
H         -9.99356      -13.70321       -7.48235
H        -10.68775      -14.63926       -6.18971
H         -8.27983      -15.54923       -3.43117
H        -11.30331      -15.24388       -3.95912
H        -14.76171      -26.75430       -3.03832
H        -13.93536      -22.82116       -0.42813
