108

C         -2.98326        1.49060       -5.08462
C         -3.21230        1.42034       -6.45653
F         -3.15898        2.54208       -7.18723
C         -3.48555        0.20426       -7.06578
F         -3.68948        0.14165       -8.38844
C         -3.54596       -0.96242       -6.31317
C         -3.32025       -0.91546       -4.93029
C         -3.02320        0.32785       -4.29949
C         -2.75862        0.37647       -2.91066
C         -2.79165       -0.78745       -2.14990
C         -3.09673       -1.98400       -2.80861
C         -3.36545       -2.08078       -4.16592
C         -3.02239       -3.12192       -1.89277
O         -3.32638       -4.25799       -2.18992
C         -2.49228       -2.57840       -0.59459
C         -2.52064       -1.09346       -0.70750
C         -2.42990       -0.18498        0.29696
C         -2.26009       -0.55674        1.66261
N         -2.11114       -0.85699        2.77245
C         -2.53378        1.22050        0.08655
N         -2.61456        2.36550       -0.08525
C         -1.99702       -3.37946        0.36485
C         -1.93774       -4.82379        0.33395
C         -2.52060       -5.62119        1.25630
C         -2.25101       -7.02524        0.90718
C         -1.41765       -6.96684       -0.30516
C         -1.24466       -5.67340       -0.62210
C         -0.81915       -8.02142       -1.03039
N         -0.30076       -8.87813       -1.61807
C         -2.69787       -8.11312        1.57509
C         -2.46026       -9.50755        1.19326
C         -3.06510      -10.32569        2.08210
C         -3.70773       -9.48391        3.08309
C         -3.50870       -8.18422        2.79746
C         -4.00725       -7.12802        3.59046
N         -4.41986       -6.26497        4.25166
C         -3.03845      -11.76920        2.01764
C         -3.06686      -12.49491        0.87510
C         -2.98861      -13.92058        1.21426
C         -2.96635      -13.96742        2.60103
C         -2.99144      -12.72586        3.11236
C         -2.94798      -15.22447        3.45537
N         -2.93275      -16.26730        4.16411
C         -2.87678      -15.03789        0.50190
C         -2.78209      -16.45294        0.84752
C         -2.57737      -17.17389       -0.27619
C         -2.57057      -16.22753       -1.37744
C         -2.74727      -14.99284       -0.87840
C         -2.76271      -13.73561       -1.73253
N         -2.77552      -12.69264       -2.44111
C         -2.44803      -18.61108       -0.29468
C         -1.86992      -19.33359        0.69273
C         -2.05141      -20.75966        0.41069
C         -2.73433      -20.81288       -0.88922
C         -2.94357      -19.54755       -1.29448
C         -3.07816      -21.95167       -1.65388
N         -3.34656      -22.88935       -2.28326
C         -1.71401      -21.76418        1.24841
C         -2.09245      -23.16876        1.09702
C         -1.72060      -23.84036        2.20469
C         -1.00624      -22.91604        3.07452
C         -0.97832      -21.69312        2.51733
C         -0.22621      -20.61248        3.03677
N          0.40937      -19.73490        3.44807
C         -1.96756      -25.24086        2.42786
C         -3.15919      -25.85105        2.50511
C         -3.19672      -27.31840        2.84295
O         -2.25981      -28.08231        2.94636
C         -4.61166      -27.64501        3.07225
C         -5.14552      -28.85367        3.48636
C         -6.53363      -28.93027        3.68711
C         -7.35553      -27.79129        3.42147
C         -8.73890      -27.87007        3.62828
C         -9.30370      -29.04493        4.10956
C         -8.50937      -30.15159        4.37419
C         -7.13404      -30.10633        4.15984
F         -9.06165      -31.27676        4.84739
F        -10.62526      -29.09364        4.32451
C         -6.77845      -26.59290        2.97747
C         -5.39877      -26.51491        2.85169
C         -4.55461      -25.36407        2.44708
C         -4.88874      -24.09963        2.79268
C         -5.09771      -23.15921        1.74414
N         -5.29036      -22.40393        0.87951
C         -5.51704      -23.81125        4.03657
N         -6.00483      -23.59149        5.06648
H         -2.76936        2.46214       -4.64622
H         -3.75985       -1.89948       -6.82083
H         -2.50681        1.33903       -2.47741
H         -3.57812       -3.05150       -4.60772
H         -1.54348       -2.97474        1.26499
H         -3.10132       -5.25644        2.08701
H         -0.67882       -5.29448       -1.46106
H         -1.89571       -9.85272        0.34305
H         -4.26798       -9.87330        3.92109
H         -3.14509      -12.03617       -0.09330
H         -2.98051      -12.45788        4.15814
H         -2.87604      -16.92133        1.80901
H         -2.42713      -16.49349       -2.41375
H         -1.43587      -18.90583        1.58183
H         -3.41642      -19.24256       -2.21674
H         -2.65520      -23.60476        0.28698
H         -0.52882      -23.20163        4.00208
H         -1.06410      -25.83466        2.58894
H         -4.49107      -29.70202        3.66993
H         -9.39085      -27.02104        3.43943
H         -6.54520      -30.99245        4.38097
H         -7.40726      -25.73296        2.75832
