128

C         -4.19536       -0.59999        5.58817
C         -4.31726       -1.10342        6.88580
F         -4.48100       -0.25373        7.90903
C         -4.28457       -2.46956        7.12128
F         -4.39322       -2.95010        8.36732
C         -4.16606       -3.35724        6.06260
C         -4.09711       -2.87279        4.75027
C         -4.07563       -1.47370        4.48935
C         -3.96421       -1.00823        3.14597
C         -3.94425       -1.91152        2.07733
C         -4.07793       -3.26289        2.39942
C         -4.10346       -3.76922        3.68949
C         -4.27416       -4.08056        1.20799
O         -4.63163       -5.23995        1.24595
C         -4.03144       -3.19229        0.01977
C         -3.86489       -1.80270        0.57220
C         -3.67408       -0.64180       -0.11345
C         -3.48987        0.61985        0.51884
N         -3.33673        1.65840        1.02986
C         -3.65602       -0.59640       -1.53667
N         -3.66221       -0.56309       -2.69529
C         -3.92471       -3.72429       -1.21962
C         -4.06088       -5.14463       -1.57274
C         -3.09053       -5.97391       -2.04685
N         -1.79838       -5.56607       -2.54130
O         -1.29794       -6.28727       -3.41974
O         -1.27961       -4.54257       -2.08649
C         -3.46263       -7.36922       -1.95293
C         -4.72737       -7.43848       -1.52193
C         -5.25170       -6.07188       -1.48009
C         -6.57015       -5.77131       -1.53640
C         -7.11545       -4.41804       -1.53982
C         -8.45157       -4.51562       -1.57468
C         -8.82604       -5.91732       -1.65269
N        -10.21304       -6.32016       -1.84723
O        -11.04055       -5.40164       -1.93993
O        -10.51556       -7.51762       -1.87211
C         -7.73628       -6.72180       -1.66600
C         -7.68950       -8.14446       -1.96102
C         -8.29027       -9.10866       -1.24859
C         -8.25801      -10.50830       -1.57490
N         -7.90644      -11.49036       -0.63579
C         -7.59160      -11.23082        0.76063
C         -6.55997      -12.17003        1.36945
C         -8.11105      -12.78595       -1.15380
O         -7.97856      -13.87853       -0.64207
C         -8.58661      -12.51530       -2.51462
C         -8.63058      -11.09608       -2.71961
C         -9.14215      -10.86988       -4.09021
O         -9.29010       -9.80527       -4.65405
N         -9.38501      -12.18231       -4.55804
C         -9.96561      -12.45975       -5.86086
C         -8.91452      -12.62107       -6.94698
C         -9.05137      -13.13114       -3.59752
C         -9.23636      -14.53473       -3.77170
C        -10.00214      -15.27744       -2.95628
C        -10.20487      -16.69031       -3.12610
C        -10.18430      -17.31838       -4.31928
C        -10.48001      -18.73122       -4.11441
C        -10.71069      -18.87826       -2.67030
C        -10.56200      -17.66628       -2.10918
C        -11.03509      -20.04277       -1.93876
N        -11.29889      -21.00020       -1.33893
C        -10.52044      -19.65630       -5.09384
C        -10.80995      -21.07483       -4.90319
C        -10.72383      -21.69345       -6.09484
C        -10.43015      -20.68980       -7.10910
C        -10.29387      -19.48338       -6.53675
C        -10.00164      -18.30603       -7.26732
N         -9.74727      -17.34599       -7.86726
C        -10.96802      -23.10041       -6.27404
C        -10.36902      -23.80710       -7.24108
C        -10.57804      -25.21870       -7.44107
C        -10.04876      -25.96544       -8.41866
C        -10.04513      -27.45078       -8.22019
O        -10.76361      -28.11459       -7.50381
C         -8.90711      -27.94065       -9.01493
C         -8.40934      -29.23222       -9.00794
C         -7.25625      -29.49456       -9.75404
C         -6.61181      -28.43450      -10.46255
C         -5.44407      -28.70992      -11.18841
C         -4.93436      -30.00399      -11.22811
C         -5.56812      -31.03361      -10.54720
C         -6.71980      -30.78818       -9.80722
F         -5.07543      -32.27843      -10.59716
F         -3.82374      -30.24777      -11.93668
C         -7.14927      -27.13189      -10.43730
C         -8.32398      -26.88929       -9.73999
C         -9.17595      -25.67961       -9.56490
C         -9.30039      -24.67068      -10.46231
C        -10.34731      -23.70373      -10.39464
N        -11.18284      -22.89965      -10.35711
C         -8.45365      -24.54693      -11.60115
N         -7.74915      -24.44338      -12.51687
H         -4.22527        0.47852        5.45371
H         -4.15623       -4.42356        6.27416
H         -3.93195        0.06714        2.99385
H         -4.17125       -4.84275        3.84556
H         -3.62996       -3.11313       -2.06830
H         -2.78036       -8.19902       -2.06673
H         -5.23607       -8.33797       -1.21745
H         -6.56796       -3.49208       -1.54364
H         -9.15352       -3.69600       -1.61394
H         -7.09321       -8.41558       -2.83245
H         -8.88244       -8.85490       -0.37080
H         -8.52825      -11.29266        1.32519
H         -7.20330      -10.21114        0.85551
H         -6.91469      -13.20350        1.40336
H         -6.34740      -11.87251        2.40103
H         -5.62409      -12.14798        0.80260
H        -10.62260      -11.62350       -6.12416
H        -10.59430      -13.35617       -5.80625
H         -8.22133      -11.77429       -6.95808
H         -9.39346      -12.68516       -7.92972
H         -8.32882      -13.53404       -6.79829
H         -8.70924      -14.97788       -4.61292
H        -10.50928      -14.82306       -2.10658
H         -9.99087      -16.82551       -5.25525
H        -10.66686      -17.42585       -1.06045
H        -11.03517      -21.57749       -3.97783
H        -10.35364      -20.90418       -8.16548
H        -11.65414      -23.57562       -5.57511
H         -9.64532      -23.30288       -7.87376
H        -11.14719      -25.72113       -6.65537
H         -8.90796      -30.00251       -8.42504
H         -4.92172      -27.93098      -11.73832
H         -7.18850      -31.61725       -9.28362
H         -6.62588      -26.33875      -10.96386
