108

C          3.03372       -2.81496        6.70187
C          4.29366       -3.38372        6.86236
F          5.11485       -2.90009        7.80416
C          4.69603       -4.44425        6.06331
F          5.90717       -4.99251        6.22980
C          3.84655       -4.95568        5.08819
C          2.57006       -4.40394        4.91016
C          2.15256       -3.31294        5.73048
C          0.86324       -2.76081        5.57650
C         -0.00461       -3.28320        4.62559
C          0.42814       -4.37269        3.85597
C          1.69210       -4.93202        3.95920
C         -0.67184       -4.90184        3.03780
O         -0.58941       -5.81426        2.24170
C         -1.88893       -4.12756        3.45525
C         -1.41818       -2.97665        4.25926
C         -2.07562       -1.81534        4.49341
C         -3.39436       -1.56764        3.99915
N         -4.46398       -1.37095        3.61476
C         -1.49302       -0.72722        5.20371
N         -1.01462        0.15454        5.79134
C         -3.13375       -4.59565        3.27228
C         -3.47424       -5.84368        2.56697
C         -3.73185       -5.91408        1.19836
C         -4.17218       -7.14011        0.55945
N         -4.44768       -7.09766       -0.76550
C         -4.29083       -5.92896       -1.43137
C         -3.83759       -4.78976       -0.81074
N         -3.57049       -4.76467        0.50750
F         -3.64695       -3.66320       -1.51179
F         -4.61057       -5.90225       -2.73284
C         -4.34484       -8.36711        1.28022
C         -4.03407       -8.32213        2.67633
C         -3.59274       -7.03297        3.32508
N         -3.36111       -7.14798        4.64567
S         -3.62236       -8.73168        5.03775
N         -4.13067       -9.31356        3.57953
C         -4.90691       -9.62363        0.69144
S         -6.22806       -9.48179       -0.43413
C         -6.43063      -11.16651       -0.64128
C         -5.50485      -11.84462        0.11871
C         -4.64422      -10.97548        0.89612
N         -3.69274      -11.46535        1.74241
C         -3.69332      -12.83414        1.78388
O         -2.78317      -13.45217        2.62423
C         -2.55612      -12.70696        3.81896
C         -1.58194      -13.48881        4.68263
C         -4.52029      -13.67848        1.01258
C         -4.43829      -15.18787        1.12305
N         -3.51291      -15.78866        0.15829
N         -5.45353      -13.20698        0.14026
C         -7.50363      -11.70493       -1.49626
C         -8.15073      -12.89609       -1.14128
C         -9.10790      -13.47184       -1.99032
N         -9.66967      -14.73945       -1.55972
O         -8.88254      -15.68207       -1.40289
O        -10.88910      -14.77606       -1.34460
C         -9.47724      -12.88129       -3.20734
C         -8.86989      -11.65186       -3.51459
C         -7.89180      -11.08273       -2.68733
C        -10.46410      -13.45722       -4.14124
C        -10.39725      -13.29421       -5.47246
C        -11.35987      -13.83301       -6.39988
C        -12.68040      -13.61129       -6.43146
C        -13.50509      -14.50846       -7.29781
O        -13.14098      -15.19469       -8.22914
C        -14.86512      -14.43607       -6.74642
C        -15.94713      -15.18305       -7.17872
C        -17.16988      -14.99616       -6.53113
C        -17.25897      -14.09281       -5.42857
C        -18.49684      -13.91263       -4.79513
C        -19.62179      -14.59145       -5.25350
C        -19.53105      -15.46586       -6.32755
C        -18.31353      -15.68024       -6.96306
F        -20.62135      -16.10626       -6.77003
F        -20.80101      -14.38314       -4.65261
C        -16.12314      -13.37345       -5.00254
C        -14.92600      -13.51155       -5.69054
C        -13.60657      -12.81835       -5.60991
C        -13.40715      -11.56671       -5.12680
C        -12.25136      -10.79757       -5.46190
N        -11.34751      -10.13665       -5.76002
C        -14.38288      -10.86657       -4.35754
N        -15.17080      -10.30745       -3.71908
H          2.75383       -1.98785        7.34950
H          4.19108       -5.79163        4.48493
H          0.56370       -1.95507        6.24080
H          1.95961       -5.78350        3.33847
H         -4.00442       -4.10223        3.69241
H         -3.50177      -12.58400        4.36110
H         -2.12050      -11.72673        3.59845
H         -1.82115      -14.55732        4.69271
H         -1.58514      -13.10949        5.70829
H         -0.56621      -13.39120        4.28465
H         -5.43824      -15.60480        0.94247
H         -4.16782      -15.49099        2.13978
H         -3.86950      -15.60549       -0.78051
H         -3.53131      -16.80079        0.27192
H         -7.90119      -13.39845       -0.20757
H         -9.13019      -11.10788       -4.42167
H         -7.42956      -10.15215       -3.01314
H        -11.26968      -14.04797       -3.70976
H         -9.56587      -12.76790       -5.94125
H        -10.92169      -14.51844       -7.12911
H        -15.83102      -15.87629       -8.00810
H        -18.60936      -13.23103       -3.95578
H        -18.27751      -16.37023       -7.80196
H        -16.21844      -12.70885       -4.14902
