113

C         -8.38727        0.16366       -1.12774
C         -7.46114        0.08915       -2.16503
F         -6.74703        1.17728       -2.48311
C         -7.26353       -1.09985       -2.85211
F         -6.34437       -1.17230       -3.82393
C         -8.01137       -2.22870       -2.53726
C         -8.96466       -2.17373       -1.51082
C         -9.13710       -0.96600       -0.76703
C        -10.01398       -0.92971        0.33976
C        -10.70972       -2.07636        0.69911
C        -10.56588       -3.22511       -0.09355
C         -9.71768       -3.30401       -1.18525
C        -11.23928       -4.37033        0.53706
O        -11.46318       -5.44484        0.02411
C        -11.49398       -3.92041        1.94653
C        -11.50888       -2.44329        1.90510
C        -12.20650       -1.60694        2.70708
C        -13.00984       -2.06856        3.78985
N        -13.64127       -2.40961        4.70048
C        -12.21968       -0.19956        2.50068
N        -12.21065        0.94853        2.31395
C        -11.36131       -4.73423        3.00883
C        -11.14056       -6.17421        2.97724
C        -11.96169       -7.09839        3.53622
N        -13.16324       -6.78665        4.27630
O        -13.78703       -5.75795        3.98746
O        -13.49860       -7.59610        5.15178
C        -11.55626       -8.45022        3.23543
C        -10.46634       -8.40610        2.45527
C        -10.09152       -6.99898        2.26977
C         -8.99489       -6.57587        1.59844
C         -8.43227       -5.22550        1.69890
C         -7.39455       -5.13654        0.85578
C         -7.22694       -6.41723        0.20968
N         -6.21859       -6.63894       -0.80773
O         -5.71843       -7.76417       -0.92324
O         -5.88308       -5.64778       -1.47312
C         -8.13542       -7.32824        0.63233
C         -8.23688       -8.67565        0.11180
C         -9.30576       -9.20724       -0.50613
C         -9.21115      -10.46064       -1.19573
S        -10.18683      -10.66550       -2.61544
C         -9.39614      -12.12211       -3.11433
C         -8.42003      -12.44902       -2.18825
C         -8.43195      -11.59323       -1.01967
C         -7.64195      -11.83922        0.11699
C         -6.80562      -12.97383       -0.00516
C         -5.94746      -13.38564        1.16207
C         -6.73120      -13.75036       -1.20389
C         -7.53228      -13.52490       -2.34076
C         -9.84322      -12.74456       -4.32808
C         -9.90020      -14.08317       -4.43178
C        -10.32086      -14.80023       -5.59486
S        -11.02502      -16.35502       -5.34069
C        -11.27417      -16.65101       -7.00931
C        -10.81529      -15.58918       -7.77969
C        -10.23304      -14.54641       -6.95499
C         -9.60144      -13.37786       -7.50621
N         -9.09279      -12.44704       -7.97451
C        -10.86621      -15.48616       -9.27146
F        -11.62711      -16.44568       -9.85684
F        -11.39112      -14.29658       -9.66050
F         -9.62889      -15.57402       -9.81812
C        -11.85415      -17.89957       -7.38849
C        -13.18480      -18.02739       -7.51550
C        -13.82256      -19.27167       -7.89946
C        -14.67053      -19.46197       -8.92322
C        -14.98305      -20.86934       -9.34802
O        -14.85422      -21.89050       -8.70639
C        -15.42983      -20.76941      -10.75048
C        -15.83152      -21.81734      -11.56362
C        -16.24600      -21.51685      -12.86767
C        -16.14971      -20.17604      -13.34963
C        -16.55943      -19.88481      -14.65853
C        -17.09992      -20.88504      -15.45934
C        -17.21788      -22.18275      -14.98262
C        -16.78078      -22.50944      -13.70219
F        -17.76895      -23.13363      -15.74899
F        -17.52706      -20.57690      -16.69131
C        -15.69953      -19.14683      -12.50196
C        -15.41459      -19.43170      -11.17461
C        -15.19674      -18.57612       -9.97259
C        -15.75154      -17.35275       -9.81490
C        -16.03376      -16.81756       -8.52546
N        -16.31795      -16.40294       -7.47923
C        -16.24212      -16.57182      -10.89480
N        -16.62057      -15.93140      -11.78627
H         -8.50072        1.11014       -0.60505
H         -7.82281       -3.14658       -3.08937
H        -10.07201       -0.01883        0.92971
H         -9.59458       -4.24773       -1.71095
H        -11.41236       -4.32288        4.01660
H        -12.06574       -9.33744        3.58032
H         -9.93586       -9.27444        2.10321
H         -8.74262       -4.44304        2.36934
H         -6.75293       -4.28261        0.69748
H         -7.29963       -9.22751        0.14509
H        -10.22245       -8.62737       -0.60792
H         -7.66561      -11.24807        1.02282
H         -6.12179      -14.44205        1.39235
H         -6.19237      -12.80958        2.06033
H         -4.88939      -13.23326        0.93023
H         -6.02361      -14.58008       -1.24235
H         -7.43387      -14.13894       -3.22566
H        -10.18403      -12.09066       -5.12650
H         -9.64706      -14.69083       -3.56451
H        -11.18966      -18.74091       -7.57265
H        -13.82177      -17.18196       -7.28318
H        -13.48862      -20.14853       -7.33724
H        -15.85893      -22.83067      -11.17059
H        -16.49873      -18.87624      -15.06026
H        -16.89327      -23.53525      -13.36138
H        -15.63117      -18.13644      -12.89482
