110

C         -9.18264       -0.26142        6.24532
C         -8.62581        0.99940        6.47117
F         -8.97999        1.68893        7.56446
C         -7.69894        1.53298        5.58806
F         -7.14289        2.72892        5.82488
C         -7.32042        0.82304        4.45836
C         -7.85112       -0.45121        4.22281
C         -8.79529       -1.02338        5.12634
C         -9.28115       -2.34048        4.89778
C         -8.80612       -3.08315        3.81602
C         -7.86116       -2.48100        2.97964
C         -7.40692       -1.18257        3.12674
C         -7.31240       -3.43530        2.01556
O         -6.48121       -3.15131        1.17648
C         -7.92597       -4.76536        2.34395
C         -9.02409       -4.48181        3.31898
C        -10.12855       -5.23200        3.55816
C        -11.19478       -4.79655        4.40616
N        -12.04865       -4.43788        5.09659
C        -10.35080       -6.48681        2.91175
N        -10.52245       -7.50856        2.39057
C         -7.41542       -5.92861        1.89397
C         -6.35178       -6.01684        0.94162
S         -6.71865       -6.01634       -0.76615
C         -5.06221       -6.20200       -1.23298
C         -4.27112       -6.29314       -0.12354
C         -4.99708       -6.19374        1.07101
C         -4.07139       -6.37189        2.12480
C         -2.81274       -6.62256        1.67021
C         -2.86556       -6.50164        0.15112
O         -1.94508       -6.55178       -0.64646
C         -1.67120       -6.95447        2.49292
N         -0.64421       -7.88771        2.21999
C         -0.44407       -8.72662        1.05608
C         -0.40385      -10.21349        1.40851
C          0.26577       -7.99930        3.29944
O          1.26961       -8.66848        3.43244
C         -0.31739       -7.11271        4.29541
C         -1.47146       -6.48078        3.73488
C         -2.02820       -5.59749        4.78477
O         -3.02922       -4.91752        4.68588
N         -1.14612       -5.78840        5.87181
C         -1.19670       -5.09550        7.15323
C         -2.31100       -4.07699        7.31607
C         -0.16922       -6.73318        5.55956
C          0.79918       -7.22501        6.49476
C          0.88645       -8.52522        6.82957
C          1.89036       -9.11237        7.73698
C          2.35402      -10.43619        7.58905
C          3.43758      -10.96455        8.37909
N          3.83958      -12.24513        8.19324
C          3.18375      -13.01660        7.28165
C          2.14776      -12.51181        6.53383
N          1.73836      -11.22542        6.67923
C          1.39936      -13.30152        5.60035
N          0.78252      -13.95957        4.86867
C          3.60317      -14.38434        7.19403
N          3.90650      -15.50440        7.11957
C          4.08735      -10.19121        9.36758
C          3.48290       -8.94340        9.69713
C          2.38713       -8.37836        8.84615
N          1.98057       -7.16774        9.27048
S          2.82727       -6.80102       10.63436
N          3.78671       -8.14113       10.73467
C          5.29767      -10.66606       10.08148
C          6.33095       -9.97562       10.59600
C          7.25954      -10.68869       11.54078
O          7.48713      -11.87715       11.61147
C          7.77397       -9.63774       12.44101
C          8.50962       -9.82761       13.59752
C          8.74483       -8.71522       14.41586
C          8.18654       -7.44573       14.06958
C          8.36548       -6.35836       14.93665
C          9.11479       -6.50856       16.09882
C          9.69144       -7.73092       16.41327
C          9.50557       -8.83495       15.58716
F         10.43181       -7.86072       17.52227
F          9.27943       -5.45591       16.91123
C          7.46911       -7.29055       12.86891
C          7.30938       -8.38136       12.02812
C          6.66615       -8.55009       10.70203
C          6.64041       -7.61648        9.72046
C          6.22005       -7.93018        8.39592
N          5.83517       -8.19414        7.33336
C          7.04400       -6.26838        9.93496
N          7.34349       -5.16379       10.12899
H         -9.89840       -0.64139        6.96999
H         -6.58450        1.26069        3.78865
H         -9.98414       -2.75981        5.61347
H         -6.67448       -0.78717        2.42730
H         -7.80851       -6.88421        2.22384
H         -4.78820       -6.25935       -2.27746
H         -4.37042       -6.34332        3.16256
H          0.51356       -8.44137        0.60322
H         -1.23272       -8.57605        0.32322
H          0.44180      -10.46360        2.05712
H         -0.29864      -10.81895        0.50400
H         -1.31751      -10.51323        1.93091
H         -0.23641       -4.57948        7.27647
H         -1.27576       -5.84936        7.94505
H         -2.21656       -3.27292        6.57872
H         -2.26765       -3.62509        8.31149
H         -3.29459       -4.54270        7.20162
H          1.47251       -6.47805        6.90392
H          0.21947       -9.24656        6.35711
H          5.31285      -11.75208       10.21263
H          8.86251      -10.82156       13.85987
H          7.93369       -5.38418       14.72132
H          9.96372       -9.77899       15.86988
H          7.03656       -6.32317       12.62744
