118

C         -6.17880        0.62193        0.91302
C         -7.07291        0.50259        1.97527
F         -7.57900        1.61103        2.53234
C         -7.44796       -0.74688        2.44735
F         -8.33899       -0.85400        3.44198
C         -6.90125       -1.89944        1.89697
C         -5.96605       -1.80259        0.85723
C         -5.62649       -0.52402        0.31931
C         -4.77709       -0.42886       -0.80899
C         -4.25397       -1.58546       -1.37489
C         -4.54070       -2.81408       -0.76187
C         -5.38395       -2.95425        0.32748
C         -4.01274       -3.92625       -1.56416
O         -3.90788       -5.08031       -1.21109
C         -3.71099       -3.31412       -2.89767
C         -3.52014       -1.86750       -2.64755
C         -2.73037       -1.01102       -3.33899
C         -1.99415       -1.40880       -4.49404
N         -1.39876       -1.70126       -5.44273
C         -2.52698        0.33702       -2.92143
N         -2.38077        1.43330       -2.56670
C         -3.93913       -3.96006       -4.05501
C         -4.33549       -5.35724       -4.22216
C         -3.60463       -6.29552       -4.88031
N         -2.35418       -6.04290       -5.56370
O         -1.55725       -6.98876       -5.63621
O         -2.17095       -4.92822       -6.06652
C         -4.16902       -7.61873       -4.76394
C         -5.27166       -7.55157       -4.00504
C         -5.48203       -6.15038       -3.61824
C         -6.51424       -5.71999       -2.85138
C         -6.89293       -4.31779       -2.67547
C         -7.82590       -4.25283       -1.71566
C         -8.13269       -5.59700       -1.28082
N         -9.01333       -5.84858       -0.15575
O         -9.04882       -4.96770        0.71638
O         -9.69045       -6.88142       -0.12509
C         -7.43403       -6.52730       -1.97272
C         -7.46479       -7.96142       -1.76378
C         -8.56571       -8.70268       -1.96386
C         -8.64329      -10.12443       -1.82235
N         -8.36893      -10.86035       -0.66780
C         -8.14811      -10.34310        0.66783
C         -9.43490      -10.28501        1.47998
C         -8.53422      -12.24660       -0.88965
O         -8.41342      -13.18038       -0.12359
C         -8.93643      -12.30238       -2.30404
C         -8.99776      -10.95997       -2.79965
C         -9.39799      -11.00695       -4.21342
O         -9.54831      -10.06041       -4.95831
N         -9.53548      -12.39178       -4.44713
C         -9.91066      -12.93215       -5.74021
C        -11.28029      -12.45889       -6.20411
C         -9.24202      -13.13175       -3.30076
C         -9.23296      -14.56118       -3.25995
C         -9.97948      -15.27447       -2.40647
C         -9.95471      -16.71046       -2.34616
C        -11.01543      -17.45040       -1.96303
C        -10.61988      -18.86060       -1.94397
C         -9.19927      -18.87554       -2.32418
C         -8.82712      -17.60619       -2.55292
C         -8.31650      -19.97260       -2.44338
N         -7.58384      -20.86679       -2.54995
C        -11.42592      -19.89445       -1.62561
C        -11.01877      -21.29495       -1.56332
C        -12.08999      -22.03918       -1.22677
C        -13.22022      -21.15302       -1.02517
C        -12.84939      -19.88586       -1.26466
C        -13.73753      -18.79384       -1.16890
N        -14.48045      -17.90636       -1.11514
C        -12.01141      -23.45709       -1.03327
C        -13.03585      -24.30600       -1.20823
C        -12.95647      -25.80302       -1.09275
S        -13.45312      -26.31664        0.56598
C        -12.26429      -27.67397        0.62627
N        -11.46774      -27.72986       -0.59056
C        -11.55790      -26.45188       -1.29217
N        -11.32259      -26.73983       -2.71410
C        -11.19937      -28.19910       -2.81061
C        -11.89834      -28.72114       -1.56571
H         -5.92532        1.61942        0.56300
H         -7.22409       -2.86364        2.28369
H         -4.59814        0.55060       -1.24473
H         -5.62979       -3.94551        0.70013
H         -3.84924       -3.41904       -4.99795
H         -3.76339       -8.50174       -5.23460
H         -5.91850       -8.38751       -3.79994
H         -6.51953       -3.47432       -3.23006
H         -8.30860       -3.36530       -1.33502
H         -6.52752       -8.43395       -1.47397
H         -9.48266       -8.23310       -2.32238
H         -7.67620       -9.35864        0.62579
H         -7.44888      -11.01762        1.17664
H        -10.19827       -9.68437        0.97581
H         -9.24431       -9.84636        2.46455
H         -9.84901      -11.28756        1.63433
H         -9.90970      -14.02617       -5.71029
H         -9.14908      -12.61895       -6.46232
H        -12.05735      -12.74170       -5.48690
H        -11.52471      -12.90503       -7.17310
H        -11.31304      -11.37168       -6.32206
H         -8.57938      -15.05379       -3.97536
H        -10.65366      -14.77169       -1.71369
H        -11.97718      -17.03740       -1.70906
H         -7.83766      -17.27123       -2.82892
H        -10.03878      -21.70324       -1.74754
H        -14.19981      -21.49300       -0.72276
H        -11.03099      -23.81666       -0.73387
H        -14.00718      -23.92342       -1.51624
H        -13.68013      -26.24165       -1.79231
H        -12.77808      -28.61723        0.83678
H        -11.59749      -27.47818        1.47267
H        -10.74718      -25.82235       -0.91498
H        -10.44001      -26.31439       -2.99219
H        -10.13832      -28.47728       -2.80964
H        -11.65895      -28.57135       -3.73007
H        -11.55250      -29.72388       -1.29980
H        -12.98619      -28.73470       -1.70435
