119

C         -3.41467      -18.60869       -7.93552
C         -3.20279      -19.35520       -6.77728
F         -2.62328      -20.55989       -6.86881
C         -3.58399      -18.85925       -5.53954
F         -3.34234      -19.56201       -4.42461
C         -4.23207      -17.63417       -5.44307
C         -4.50271      -16.89020       -6.60031
C         -4.04514      -17.35373       -7.86848
C         -4.21826      -16.54806       -9.02129
C         -4.88638      -15.33038       -8.92848
C         -5.42251      -14.97505       -7.68368
C         -5.22392      -15.69912       -6.51957
C         -6.14259      -13.70159       -7.76977
O         -6.93765      -13.28193       -6.95699
C         -5.69587      -13.08469       -9.06053
C         -5.15428      -14.20827       -9.88754
C         -5.04252      -14.27218      -11.24161
C         -5.39345      -13.17518      -12.09010
N         -5.63301      -12.27710      -12.77217
C         -4.58873      -15.43350      -11.93918
N         -4.21204      -16.38051      -12.49948
C         -5.65331      -11.74923       -9.22808
C         -6.15036      -10.69652       -8.33539
C         -7.08917       -9.76936       -8.67029
N         -7.73410       -9.66871       -9.96001
O         -7.85619      -10.69154      -10.64484
O         -8.15103       -8.54696      -10.28267
C         -7.39862       -8.86400       -7.58819
C         -6.66492       -9.21183       -6.52578
C         -5.86217      -10.38543       -6.88351
C         -5.01771      -10.99071       -6.01919
C         -3.86245      -11.77929       -6.44511
C         -3.19399      -12.15373       -5.34603
C         -3.90851      -11.66717       -4.18243
N         -3.47464      -11.98792       -2.83870
O         -2.25792      -12.17176       -2.68433
O         -4.31929      -12.10559       -1.94362
C         -5.01455      -10.95779       -4.51113
C         -5.96397      -10.36543       -3.57000
C         -7.29707      -10.32142       -3.74083
C         -8.25102       -9.78211       -2.77225
C         -8.76794       -8.56158       -3.00641
C         -8.72654      -10.53870       -1.64227
S         -8.62124      -12.25554       -1.68494
C         -9.36741      -12.45148       -0.16628
C         -9.60117      -13.84824        0.30038
C         -9.66881      -11.23644        0.41939
C         -9.30752      -10.14200       -0.44517
C        -10.33124      -11.03340        1.68056
C        -10.71392      -11.97042        2.56849
C        -11.48817      -11.65779        3.71807
S        -11.29485      -12.59783        5.15011
C        -12.49587      -10.73499        3.90538
C        -13.22363       -9.98613        2.85787
O        -13.12081      -10.16137        1.65200
C        -14.15820       -9.03386        3.44018
C        -15.19024       -8.34446        2.84098
N        -15.84611       -7.63660        3.81535
C        -17.09866       -6.90684        3.68897
C        -17.59743       -6.71175        2.26769
C        -15.15349       -7.74534        5.00006
C        -14.12977       -8.64470        4.80498
C        -13.15564       -9.16146        5.74469
O        -12.77013       -8.55133        6.72909
C        -12.63639      -10.45857        5.32512
C        -12.28445      -11.54772        6.12134
C        -12.45740      -11.91296        7.50785
C        -13.31323      -11.36135        8.38422
C        -13.02698      -11.42655        9.87207
O        -12.53906      -12.34022       10.49912
C        -13.38655      -10.06553       10.37270
C        -13.11671       -9.47441       11.59044
C        -13.26380       -8.07521       11.68935
C        -13.58384       -7.30407       10.52948
C        -13.53483       -5.90443       10.57724
C        -13.29395       -5.26725       11.78583
C        -13.10726       -6.00936       12.94403
C        -13.07073       -7.40215       12.90200
F        -12.94990       -5.38743       14.11996
F        -13.26493       -3.92820       11.82620
C        -13.95912       -7.94994        9.35105
C        -13.94029       -9.33319        9.32004
C        -14.28770      -10.29451        8.26502
C        -15.46714      -10.31222        7.60663
C        -15.86072      -11.42884        6.81789
N        -16.18662      -12.33947        6.17806
C        -16.40302       -9.24493        7.73652
N        -17.13027       -8.34515        7.82981
H         -3.08934      -19.02943       -8.88387
H         -4.52280      -17.27587       -4.45864
H         -3.79338      -16.90124       -9.95603
H         -5.61466      -15.32552       -5.57651
H         -5.23382      -11.34153      -10.14652
H         -8.07130       -8.02169       -7.65142
H         -6.61309       -8.65406       -5.60501
H         -3.52015      -11.92306       -7.45605
H         -2.25474      -12.68564       -5.31015
H         -5.55715       -9.99608       -2.62784
H         -7.76655      -10.75831       -4.62030
H         -8.47518       -7.97340       -3.87107
H         -9.53420       -8.11806       -2.37713
H         -9.31182      -14.59613       -0.44263
H        -10.66491      -14.00341        0.50986
H         -9.01490      -14.04436        1.20371
H         -9.48310       -9.10099       -0.19808
H        -10.57347       -9.99223        1.89200
H        -10.44307      -13.00757        2.45369
H        -15.51447       -8.34542        1.80783
H        -16.94680       -5.93291        4.16718
H        -17.84206       -7.46413        4.27204
H        -16.86233       -6.16576        1.66764
H        -18.53180       -6.14338        2.26745
H        -17.79050       -7.67351        1.78018
H        -15.47913       -7.20798        5.88206
H        -11.76282      -12.65871        7.90401
H        -12.76321      -10.07445       12.42316
H        -13.68607       -5.29845        9.68705
H        -12.90222       -7.94741       13.82579
H        -14.21446       -7.37671        8.46255
