105

C         -6.65166        0.04231       -5.56611
C         -5.50442       -0.28594       -6.28192
F         -4.65708        0.68804       -6.64051
C         -5.22837       -1.60652       -6.60517
F         -4.10536       -1.91650       -7.26661
C         -6.10579       -2.62217       -6.23810
C         -7.27428       -2.31761       -5.52384
C         -7.54264       -0.96217       -5.16065
C         -8.66233       -0.64622       -4.36382
C         -9.49872       -1.66312       -3.92411
C         -9.22988       -2.98040       -4.32509
C         -8.15193       -3.33132       -5.12297
C        -10.08663       -3.92337       -3.58404
O        -10.19945       -5.11124       -3.79564
C        -10.68178       -3.10105       -2.47517
C        -10.59799       -1.69465       -2.91783
C        -11.42446       -0.67528       -2.58501
C        -12.49745       -0.82947       -1.65958
N        -13.34695       -0.92482       -0.87748
C        -11.30216        0.61886       -3.16311
N        -11.17634        1.67215       -3.63609
C        -10.90400       -3.57349       -1.23601
C        -10.77388       -4.95039       -0.78562
C        -11.77910       -5.69496       -0.25939
N        -13.12419       -5.22045       -0.03217
O        -13.73930       -5.73826        0.91023
O        -13.58384       -4.35824       -0.79065
C        -11.37543       -7.05063        0.01978
C        -10.09200       -7.19208       -0.33736
C         -9.60727       -5.90502       -0.85239
C         -8.35078       -5.67484       -1.30269
C         -7.76294       -4.34859       -1.51214
C         -6.57605       -4.50429       -2.11769
C         -6.33119       -5.92046       -2.27051
N         -5.16991       -6.45127       -2.95067
O         -4.69979       -5.75485       -3.86178
O         -4.70189       -7.53476       -2.57830
C         -7.32495       -6.67153       -1.74652
C         -7.35222       -8.11778       -1.73061
C         -8.28754       -8.87858       -2.31938
C         -8.30680      -10.30709       -2.19825
C         -8.84447      -11.24773       -3.08994
C         -9.35962      -10.81908       -4.35734
N         -9.73740      -10.39770       -5.36346
C         -8.76056      -12.54871       -2.55079
C         -8.13649      -12.58983       -1.35315
S         -7.67991      -11.10127       -0.77058
S         -7.97864      -14.12967       -0.68911
C         -8.81343      -14.75056       -2.01229
C         -9.18042      -13.82553       -2.92665
C         -9.93804      -14.36256       -3.98351
C        -10.52891      -13.65156       -5.07206
N        -11.04192      -13.16202       -5.98973
C        -10.14361      -15.74001       -3.79080
S         -9.30259      -16.30119       -2.37223
C        -10.97554      -16.63775       -4.57851
S        -11.74341      -18.02448       -3.93157
C        -12.68355      -18.29972       -5.34500
C        -12.38049      -17.36296       -6.33026
C        -11.31313      -16.50192       -5.90848
C        -13.05923      -17.25199       -7.63144
O        -13.61409      -18.21310       -8.15951
C        -13.13906      -15.87435       -8.26013
C        -13.59022      -19.40139       -5.38130
C        -14.87166      -19.31603       -4.99660
C        -15.86178      -20.36190       -5.41163
O        -15.64868      -21.51536       -5.71610
C        -17.17222      -19.67231       -5.39413
C        -18.40981      -20.22168       -5.66562
C        -19.52936      -19.38376       -5.57112
C        -19.35968      -17.98524       -5.31562
C        -20.48421      -17.15278       -5.26190
C        -21.75692      -17.69679       -5.38960
C        -21.92581      -19.06049       -5.58628
C        -20.82420      -19.90360       -5.69568
F        -23.15781      -19.58143       -5.66100
F        -22.82332      -16.89135       -5.29498
C        -18.08474      -17.46045       -5.05349
C        -17.01048      -18.33108       -5.00261
C        -15.64968      -18.22100       -4.42049
C        -15.50975      -17.74021       -3.15642
C        -14.72231      -18.45648       -2.20091
N        -14.18740      -19.10491       -1.39776
C        -16.34136      -16.70987       -2.62308
N        -17.00674      -15.85916       -2.21254
H         -6.82498        1.08718       -5.32048
H         -5.84943       -3.64681       -6.49740
H         -8.80537        0.38415       -4.04951
H         -7.96153       -4.37729       -5.35170
H        -11.20786       -2.89228       -0.44169
H        -12.01074       -7.80640        0.45669
H         -9.52020       -8.08959       -0.17950
H         -8.17106       -3.40662       -1.18619
H         -5.87973       -3.72659       -2.39439
H         -6.51565       -8.57538       -1.20364
H         -9.09153       -8.40434       -2.88441
H        -10.87393      -15.75745       -6.56051
H        -13.74792      -15.22332       -7.62440
H        -13.61176      -15.94110       -9.24380
H        -12.14669      -15.43735       -8.39397
H        -13.24824      -20.29674       -5.90026
H        -18.49501      -21.28072       -5.89412
H        -20.39127      -16.08403       -5.08637
H        -20.99481      -20.96636       -5.84585
H        -17.96548      -16.40468       -4.82319
