120

C          1.46363        1.38945        5.84489
C          2.80442        1.31880        6.21488
F          3.40662        2.41186        6.70232
C          3.51233        0.13225        6.08724
F          4.79881        0.06940        6.45555
C          2.89521       -1.00435        5.58005
C          1.54793       -0.95533        5.19832
C          0.80973        0.25725        5.33620
C         -0.55638        0.30609        4.97317
C         -1.18322       -0.82681        4.46726
C         -0.42276       -1.99543        4.35591
C          0.91673       -2.09171        4.69724
C         -1.24345       -3.11492        3.89906
O         -0.80177       -4.21228        3.63270
C         -2.65815       -2.60335        3.85765
C         -2.57757       -1.12624        4.01340
C         -3.51702       -0.21191        3.68096
C         -4.78871       -0.57689        3.14271
N         -5.82275       -0.87415        2.71760
C         -3.31089        1.19032        3.78862
N         -3.14314        2.34011        3.88398
C         -3.72504       -3.42314        3.86184
C         -3.69606       -4.86835        3.83726
C         -3.15389       -5.59948        2.84338
C         -3.31584       -7.01313        3.16580
C         -4.00022       -7.06254        4.47253
C         -4.22698       -5.78485        4.83541
C         -4.34659       -8.17302        5.27944
N         -4.67456       -9.06556        5.96550
C         -2.92407       -8.02335        2.36821
C         -3.22241       -9.41766        2.62150
C         -2.68901      -10.17558        1.64328
C         -2.02411       -9.27105        0.71290
C         -2.17003       -7.99642        1.11388
C         -1.61294       -6.89569        0.41924
N         -1.16129       -6.01462       -0.18440
C         -2.86665      -11.60261        1.62222
N         -3.06373      -12.38279        0.47964
C         -3.15798      -11.93239       -0.89306
C         -4.57845      -11.58904       -1.30803
C         -3.27633      -13.73706        0.81323
O         -3.46929      -14.69063        0.08661
C         -3.20381      -13.73521        2.28704
C         -2.91753      -12.39396        2.70234
C         -2.80542      -12.39200        4.17498
O         -2.51945      -11.45426        4.88928
N         -3.06397      -13.73387        4.51115
C         -3.08332      -14.18656        5.89082
C         -4.46136      -14.09418        6.52703
C         -3.31360      -14.50374        3.37446
C         -3.56463      -15.91261        3.43289
C         -4.27565      -16.58686        2.51789
C         -4.47306      -18.01432        2.57959
C         -5.67512      -18.63175        2.66690
N         -6.95145      -17.94568        2.64530
O         -7.88168      -18.48431        3.26042
O         -7.05641      -16.89508        1.99792
C         -5.52598      -20.03888        2.95689
C         -4.21685      -20.33107        3.03587
C         -3.45864      -19.11396        2.72454
C         -2.11792      -19.03323        2.54633
C         -1.41836      -17.83764        2.05958
C         -0.10808      -18.10404        1.99704
C          0.08593      -19.47951        2.38625
N          1.38039      -20.12193        2.30141
O          2.36923      -19.39568        2.46830
O          1.43119      -21.33614        2.07037
C         -1.07297      -20.08722        2.74125
C         -1.22909      -21.47226        3.15424
C         -0.62110      -22.07556        4.18881
C         -0.51574      -23.56447        4.24350
O         -1.23739      -24.37606        3.70588
C          0.68480      -23.83049        5.06537
C          1.19466      -25.07144        5.39685
C          2.33609      -25.11400        6.20708
C          2.97434      -23.89857        6.61059
C          4.12142      -23.95898        7.41298
C          4.61262      -25.18973        7.83404
C          3.98190      -26.36769        7.45864
C          2.85488      -26.33984        6.64351
F          4.45032      -27.54775        7.88607
F          5.69665      -25.22602        8.62047
C          2.43513      -22.65448        6.24069
C          1.25681      -22.62430        5.51411
C          0.29574      -21.53769        5.19314
C         -0.03567      -20.63298        6.14588
C         -1.40338      -20.49232        6.52555
N         -2.50430      -20.49060        6.89222
C          0.93112      -20.00310        6.97724
N          1.73517      -19.45610        7.60998
H          0.94455        2.33729        5.96155
H          3.47563       -1.91944        5.49454
H         -1.09119        1.23908        5.12181
H          1.43536       -3.04122        4.58797
H         -4.73786       -3.03976        3.93991
H         -2.67018       -5.17927        1.97659
H         -4.70104       -5.46437        5.75288
H         -3.81331       -9.79735        3.43735
H         -1.46887       -9.57750       -0.16087
H         -2.76976      -12.72568       -1.54187
H         -2.51339      -11.07320       -1.05918
H         -5.25529      -12.43701       -1.16512
H         -4.60028      -11.30708       -2.36592
H         -4.96467      -10.74632       -0.72581
H         -2.38761      -13.56564        6.46627
H         -2.70760      -15.21217        5.95071
H         -4.80740      -13.05646        6.56898
H         -4.42758      -14.48152        7.55103
H         -5.20262      -14.67514        5.96910
H         -3.10361      -16.45780        4.25223
H         -4.75354      -16.07095        1.68680
H         -6.35015      -20.71580        3.12508
H         -3.82999      -21.30682        3.27238
H         -1.84980      -16.90867        1.72668
H          0.66623      -17.43532        1.64996
H         -1.78212      -22.08915        2.44322
H          0.69398      -25.97315        5.05425
H          4.63484      -23.05704        7.73723
H          2.38511      -27.28154        6.37245
H          2.92780      -21.74022        6.56122
