130

C        -16.37775       -6.37135       -6.52217
C        -17.12402       -7.53964       -6.64532
F        -18.32006       -7.49299       -7.24792
C        -16.62818       -8.74435       -6.16967
F        -17.33446       -9.87230       -6.32638
C        -15.38863       -8.79887       -5.53813
C        -14.61444       -7.63622       -5.39775
C        -15.10820       -6.40150       -5.92253
C        -14.30166       -5.24548       -5.89378
C        -13.01458       -5.32671       -5.37745
C        -12.56762       -6.53967       -4.82940
C        -13.34347       -7.68682       -4.80549
C        -11.12218       -6.45699       -4.52284
O        -10.49073       -7.17158       -3.77724
C        -10.65332       -5.25687       -5.28985
C        -11.85397       -4.39931       -5.43901
C        -11.89334       -3.04486       -5.45155
C        -10.69624       -2.27379       -5.38187
N         -9.69949       -1.68231       -5.31774
C        -13.11841       -2.31397       -5.43508
N        -14.12139       -1.73281       -5.41140
C         -9.49515       -5.17371       -5.97420
C         -8.39199       -6.12721       -6.05612
C         -7.98650       -6.78632       -7.17778
N         -8.46568       -6.54880       -8.52044
O         -8.41160       -7.49928       -9.31442
O         -8.83625       -5.40499       -8.81876
C         -6.89596       -7.69395       -6.93131
C         -6.53811       -7.57655       -5.64953
C         -7.40713       -6.58307       -5.00906
C         -7.17943       -6.12140       -3.75838
C         -7.77736       -4.92003       -3.17831
C         -7.11835       -4.63996       -2.04269
C         -6.13328       -5.67495       -1.81415
N         -5.32359       -5.75862       -0.62290
O         -5.81832       -5.31019        0.42085
O         -4.18150       -6.22922       -0.71821
C         -6.16794       -6.62807       -2.76783
C         -5.49910       -7.92132       -2.69254
C         -6.19085       -9.06902       -2.74111
C         -5.66789      -10.40601       -2.74561
N         -5.11189      -11.06611       -1.64754
C         -4.84686      -10.50781       -0.33586
C         -3.43520       -9.96161       -0.20065
C         -4.96660      -12.45309       -1.89571
O         -4.56796      -13.34279       -1.17279
C         -5.50054      -12.59667       -3.26038
C         -5.86279      -11.28978       -3.73158
C         -6.46896      -11.44323       -5.06385
O         -6.90411      -10.56946       -5.78344
N         -6.46263      -12.83758       -5.25528
C         -7.17324      -13.44478       -6.36404
C         -8.62569      -13.75321       -6.02725
C         -5.90231      -13.49807       -4.16005
C         -5.96179      -14.91809       -3.97593
C         -5.30272      -15.82889       -4.71217
C         -5.45885      -17.29299       -4.53787
C         -5.75138      -17.78740       -3.24491
C         -5.89546      -19.14806       -3.07490
C         -5.76581      -20.02612       -4.11966
C         -5.95523      -21.37668       -3.60313
O         -5.84001      -22.37966       -4.28188
N         -6.22497      -21.24239       -2.27162
C         -6.18603      -19.93236       -1.87840
O         -6.33950      -19.44438       -0.77781
C         -6.41822      -22.35294       -1.36378
C         -7.79549      -22.33941       -0.72233
C         -5.48142      -19.59844       -5.39457
C         -5.28858      -18.21733       -5.62470
C         -5.00012      -17.79290       -7.01920
C         -4.36346      -18.57774       -7.90658
C         -4.14362      -18.24359       -9.29797
C         -4.05272      -19.14400      -10.28887
C         -3.49660      -18.76874      -11.63411
O         -3.36913      -17.65861      -12.10313
C         -3.06906      -20.04771      -12.24889
C         -2.48373      -20.23549      -13.48972
C         -2.13170      -21.54434      -13.86026
C         -2.27647      -22.61291      -12.92198
C         -1.88361      -23.90940      -13.27918
C         -1.41893      -24.16515      -14.56340
C         -1.32265      -23.14029      -15.49401
C         -1.65647      -21.83279      -15.14842
F         -0.91595      -23.40394      -16.74306
F         -1.08756      -25.41879      -14.90075
C         -2.86191      -22.38000      -11.66893
C         -3.34006      -21.11398      -11.37855
C         -4.22842      -20.60266      -10.30867
C         -5.28869      -21.30189       -9.82101
C         -6.40330      -20.64404       -9.21822
N         -7.33679      -20.10489       -8.77684
C         -5.45012      -22.71160      -10.02489
N         -5.57603      -23.84544      -10.19861
H        -16.79377       -5.45087       -6.92459
H        -15.02871       -9.76400       -5.19127
H        -14.66967       -4.33537       -6.36106
H        -12.92594       -8.61408       -4.42155
H         -9.38117       -4.34734       -6.67665
H         -6.44356       -8.35351       -7.65685
H         -5.70880       -8.11130       -5.22206
H         -8.56940       -4.31901       -3.58965
H         -7.29631       -3.80712       -1.37923
H         -4.41500       -7.92145       -2.60126
H         -7.27337       -9.02380       -2.87523
H         -4.97691      -11.30620        0.40521
H         -5.58753       -9.73596       -0.10478
H         -2.68786      -10.72403       -0.44308
H         -3.25872       -9.62582        0.82660
H         -3.27174       -9.11065       -0.86661
H         -6.65024      -14.34813       -6.68949
H         -7.15532      -12.74295       -7.20632
H         -8.70114      -14.47086       -5.20436
H         -9.13271      -14.18132       -6.89757
H         -9.16586      -12.84777       -5.73013
H         -6.63738      -15.21850       -3.17652
H         -4.62404      -15.50084       -5.49560
H         -5.86016      -17.13994       -2.37881
H         -5.64877      -22.28329       -0.58779
H         -6.27367      -23.29320       -1.90659
H         -7.97196      -21.41263       -0.16732
H         -7.89442      -23.17442       -0.02268
H         -8.57942      -22.42616       -1.48143
H         -5.42878      -20.34077       -6.18312
H         -5.39596      -16.82839       -7.32437
H         -3.96771      -19.54334       -7.59603
H         -3.95148      -17.19135       -9.51116
H         -2.34160      -19.39066      -14.15865
H         -1.96549      -24.73993      -12.58215
H         -1.56947      -21.05824      -15.90574
H         -2.97983      -23.20251      -10.96813
