102

C        -10.92065       -0.65186      -11.32529
C        -11.99096       -0.77233      -12.20701
F        -11.85726       -0.32583      -13.46331
C        -13.18074       -1.35625      -11.79708
F        -14.19616       -1.49529      -12.66020
C        -13.33236       -1.80675      -10.49014
C        -12.27576       -1.68082       -9.57673
C        -11.03623       -1.11397      -10.00562
C         -9.93590       -1.05620       -9.12342
C        -10.06620       -1.54848       -7.83224
C        -11.30605       -2.07163       -7.43472
C        -12.41261       -2.14180       -8.26388
C        -11.19044       -2.70372       -6.11323
O        -12.09352       -3.11477       -5.41677
C         -9.71682       -2.79054       -5.85508
C         -9.08483       -1.78741       -6.73420
C         -7.92851       -1.11830       -6.51868
C         -7.12614       -1.35618       -5.36532
N         -6.49002       -1.56492       -4.41796
C         -7.47937       -0.07823       -7.38085
N         -7.12712        0.76993       -8.08984
C         -9.16010       -3.82635       -5.20222
C         -9.86201       -4.97056       -4.62965
C        -10.66805       -5.85578       -5.27909
N        -10.98966       -5.81481       -6.68883
O        -12.06973       -6.31464       -7.03166
O        -10.16067       -5.32887       -7.47247
C        -11.07616       -6.95641       -4.43871
C        -10.47984       -6.81842       -3.24845
C         -9.65432       -5.60670       -3.28750
C         -8.85071       -5.19094       -2.28487
C         -8.32709       -3.83541       -2.12934
C         -7.53456       -3.82163       -1.04652
C         -7.49378       -5.15851       -0.49154
N         -6.59006       -5.53381        0.57555
O         -6.18177       -6.70095        0.63202
O         -6.24987       -4.63280        1.35511
C         -8.29802       -6.01236       -1.16347
C         -8.44593       -7.43380       -0.91301
C         -8.16123       -8.37483       -1.82760
C         -8.30759       -9.78580       -1.59361
C         -7.29244      -10.65939       -1.75017
C         -7.76193      -12.00305       -1.38514
C         -9.19695      -11.83581       -1.08793
C         -9.49487      -10.53061       -1.20208
C        -10.15297      -12.83259       -0.77805
N        -10.93804      -13.64715       -0.52449
C         -6.99016      -13.10895       -1.28845
C         -7.42103      -14.42535       -0.79127
C         -6.33921      -15.22595       -0.68636
C         -5.18317      -14.48668       -1.18355
C         -5.54911      -13.24674       -1.56505
C         -4.66374      -12.32098       -2.15734
N         -3.93619      -11.55983       -2.66339
C         -6.37587      -16.59136       -0.14925
C         -6.20375      -16.87823        1.21220
C         -5.96274      -16.02864        2.39563
O         -5.82033      -14.82065        2.34025
N         -5.92757      -16.85910        3.50606
C         -6.08619      -18.17046        3.13927
O         -6.09876      -19.20266        3.78326
C         -6.26437      -18.18540        1.69862
C         -6.48361      -19.29076        0.90243
C         -6.64838      -19.00603       -0.43416
C         -6.60288      -17.72209       -0.95097
C         -6.84676      -17.85898       -2.37984
O         -6.90097      -16.96680       -3.19706
O         -7.00385      -19.19173       -2.62353
C         -6.90135      -19.94157       -1.50137
O         -6.99582      -21.14551       -1.38795
C         -5.76071      -16.39374        4.79798
C         -5.74701      -17.14712        5.91346
C         -5.60076      -16.65780        7.25140
C         -6.12043      -17.32408        8.40697
C         -5.81915      -16.65777        9.57628
S         -6.29467      -17.16114       11.19062
C         -4.67073      -17.35818       11.96276
S         -4.94219      -15.22144        9.27689
C         -4.92776      -15.50478        7.59203
H        -10.00000       -0.20302      -11.68932
H        -14.27359       -2.27041      -10.20634
H         -8.98546       -0.68544       -9.49688
H        -13.32851       -2.60807       -7.90946
H         -8.07638       -3.93276       -5.16731
H        -11.77132       -7.73060       -4.72641
H        -10.65986       -7.45070       -2.39473
H         -8.59971       -2.96525       -2.70405
H         -7.02666       -2.96501       -0.62810
H         -8.75859       -7.72197        0.08981
H         -7.78983       -8.09544       -2.81298
H         -6.29657      -10.36442       -2.03473
H        -10.46794      -10.08143       -1.06507
H         -8.42183      -14.70420       -0.51124
H         -4.18738      -14.89791       -1.27034
H         -6.53024      -20.29780        1.30502
H         -5.66009      -15.31236        4.87079
H         -5.87683      -18.22482        5.84285
H         -6.69221      -18.24558        8.38272
H         -4.80069      -17.59326       13.02223
H         -4.07957      -16.44165       11.88929
H         -4.12555      -18.17782       11.48673
H         -4.41853      -14.80567        6.94374
