121

C         -4.14026       -1.95085       -9.72072
C         -2.98458       -2.72069       -9.80997
F         -1.83708       -2.13682      -10.18286
C         -3.00552       -4.07155       -9.49364
F         -1.88304       -4.79804       -9.54831
C         -4.18943       -4.68313       -9.09697
C         -5.36178       -3.92670       -8.99096
C         -5.34265       -2.53021       -9.29320
C         -6.50016       -1.74422       -9.10940
C         -7.65120       -2.33215       -8.60307
C         -7.63402       -3.70566       -8.33082
C         -6.53362       -4.52365       -8.53202
C         -8.83245       -4.10203       -7.58804
O         -9.13344       -5.23835       -7.29556
C         -9.49301       -2.81099       -7.19882
C         -8.93548       -1.77201       -8.09077
C         -9.50741       -0.60127       -8.46709
C         -8.91656        0.27089       -9.42247
N         -8.41226        0.97738      -10.19240
C        -10.75588       -0.16467       -7.94009
N        -11.74648        0.21868       -7.46851
C        -10.20166       -2.67450       -6.06503
C        -10.54309       -3.72489       -5.11975
C        -11.80733       -4.10602       -4.80388
N        -13.00941       -3.53604       -5.36358
O        -14.01527       -3.55019       -4.63967
O        -12.97587       -3.10071       -6.52159
C        -11.83801       -5.19898       -3.86925
C        -10.57734       -5.57074       -3.61901
C         -9.66663       -4.69657       -4.36422
C         -8.31428       -4.78549       -4.33532
C         -7.39524       -3.71281       -4.72983
C         -6.14146       -4.12737       -4.49733
C         -6.18924       -5.49720       -4.03205
N         -4.98280       -6.28893       -3.86501
O         -5.04859       -7.52208       -3.93174
O         -3.93163       -5.65591       -3.69048
C         -7.45942       -5.95490       -3.93305
C         -7.82675       -7.35160       -3.77875
C         -8.45998       -7.88293       -2.72568
C         -8.75469       -9.27993       -2.56780
N         -8.49818       -9.94735       -1.36659
C         -7.95542       -9.34974       -0.16675
C         -6.43794       -9.36757       -0.14915
C         -8.83419      -11.31106       -1.44004
O         -8.73929      -12.18395       -0.60271
C         -9.41537      -11.42324       -2.78473
C         -9.33296      -10.13320       -3.42135
C         -9.94169      -10.25980       -4.75799
O        -10.09526       -9.38303       -5.58259
N        -10.33895      -11.61372       -4.79347
C        -11.18741      -12.13624       -5.84726
C        -10.40413      -12.65659       -7.03654
C         -9.97955      -12.28492       -3.62792
C        -10.13002      -13.69828       -3.47074
C        -10.75979      -14.32719       -2.46455
C        -10.76559      -15.75934       -2.32813
S         -9.93788      -16.75909       -3.47288
C        -10.15166      -18.15032       -2.54874
C        -10.89322      -17.94616       -1.40132
C        -11.07346      -19.08228       -0.49034
O        -10.57731      -20.18428       -0.69989
O        -11.81851      -18.85674        0.61158
C        -11.34354      -16.56330       -1.33892
S        -12.37653      -15.90796       -0.02839
C        -13.79306      -15.55227       -0.97329
C        -14.37622      -14.34543       -1.00048
C        -15.52020      -13.91991       -1.79824
C        -16.51919      -14.61221       -2.36547
C        -17.72521      -13.90021       -2.91882
O        -17.79857      -12.75916       -3.31827
C        -18.81924      -14.89861       -2.86142
C        -20.12923      -14.73402       -3.25347
C        -21.01088      -15.80100       -3.04495
C        -20.56749      -16.99398       -2.38716
C        -21.49427      -18.01735       -2.13349
C        -22.81665      -17.87658       -2.54528
C        -23.22844      -16.73889       -3.22563
C        -22.33645      -15.70410       -3.47906
F        -24.49683      -16.62117       -3.64013
F        -23.69230      -18.85656       -2.28407
C        -19.21179      -17.14410       -2.04430
C        -18.33708      -16.11593       -2.35764
C        -16.85989      -16.03129       -2.46469
C        -16.22423      -16.91375       -3.27919
C        -15.13686      -16.48781       -4.09432
N        -14.29532      -16.09917       -4.80257
C        -16.76914      -18.19397       -3.59099
N        -17.25033      -19.22500       -3.82911
H         -4.07602       -0.89195       -9.96356
H         -4.17105       -5.74027       -8.84570
H         -6.44037       -0.67464       -9.29482
H         -6.58002       -5.57312       -8.25591
H        -10.57804       -1.69791       -5.76374
H        -12.72969       -5.61859       -3.42885
H        -10.33286       -6.31565       -2.89267
H         -7.65051       -2.73732       -5.10407
H         -5.23112       -3.57286       -4.67343
H         -7.48394       -8.00527       -4.58375
H         -8.74866       -7.24390       -1.89707
H         -8.33656       -9.90802        0.69607
H         -8.32676       -8.32881       -0.06442
H         -6.06125      -10.39408       -0.15420
H         -6.07170       -8.86784        0.75193
H         -6.02310       -8.85120       -1.02061
H        -11.83566      -11.31803       -6.18206
H        -11.84644      -12.91546       -5.44630
H         -9.64218      -11.93947       -7.35626
H        -11.08031      -12.83861       -7.87838
H         -9.90365      -13.59897       -6.79429
H         -9.62076      -14.25104       -4.25638
H        -11.23909      -13.73620       -1.68774
H         -9.69707      -19.07643       -2.88289
H        -12.08928      -17.92224        0.69107
H        -14.19527      -16.37614       -1.53751
H        -13.95054      -13.53662       -0.39798
H        -15.59596      -12.82791       -1.85434
H        -20.44036      -13.80789       -3.72790
H        -21.20569      -18.93410       -1.62562
H        -22.69038      -14.83062       -4.01992
H        -18.85525      -18.07124       -1.59952
