118

C         -4.17226        0.18645       -5.00567
C         -3.27137       -0.26554       -5.96920
F         -2.36399        0.58529       -6.46649
C         -3.29350       -1.58510       -6.39808
F         -2.42418       -2.01287       -7.32320
C         -4.19497       -2.48581       -5.84978
C         -5.06531       -2.06556       -4.83680
C         -5.08569       -0.70239       -4.41818
C         -5.97978       -0.28235       -3.40054
C         -6.78550       -1.21268       -2.75214
C         -6.64043       -2.55035       -3.12975
C         -5.86292       -2.99547       -4.18233
C         -7.31042       -3.43063       -2.18257
O         -7.17863       -4.64248       -2.18320
C         -8.06522       -2.54816       -1.23265
C         -7.78094       -1.14009       -1.63200
C         -8.38074       -0.00627       -1.18300
C         -8.11186        1.27574       -1.73565
N         -7.90238        2.31934       -2.19620
C         -9.38528       -0.00366       -0.16798
N        -10.21534       -0.00139        0.63821
C         -8.82978       -3.06492       -0.25250
C         -9.04198       -4.47633        0.02735
C         -8.61018       -5.13344        1.13364
N         -7.87353       -4.52544        2.22198
O         -7.89626       -5.12133        3.30792
O         -7.25591       -3.47158        2.01343
C         -8.93074       -6.54092        1.09195
C         -9.54720       -6.80231       -0.06939
C         -9.64325       -5.55383       -0.83394
C        -10.12658       -5.44292       -2.09393
C        -10.45223       -4.17971       -2.76345
C        -10.80636       -4.45162       -4.02698
C        -10.75858       -5.88424       -4.20676
N        -11.04971       -6.51948       -5.46628
O        -11.65498       -7.59754       -5.45693
O        -10.71016       -5.90363       -6.48749
C        -10.37930       -6.53516       -3.08623
C        -10.13669       -7.95862       -2.97361
C         -8.93002       -8.50875       -2.75071
C         -8.76572       -9.91786       -2.46413
C         -8.35042      -10.32605       -1.24689
C         -8.48171      -11.76068       -1.11546
O         -8.01796      -12.26781        0.05651
C         -7.76659      -13.66040        0.15744
C         -9.01896      -12.28916       -2.24590
C         -9.20899      -11.13744       -3.17821
C         -9.61145      -11.19328       -4.46508
C         -9.33240      -10.18524       -5.48606
C         -9.82797      -10.65177       -6.64823
O         -9.75690      -10.19315       -7.92291
C         -8.96621       -9.02547       -8.09999
C        -10.50212      -11.90677       -6.42315
C        -10.35310      -12.25419       -5.13651
C         -9.17288      -13.69524       -2.51348
C        -10.34616      -14.33870       -2.54896
C        -10.37137      -15.71309       -2.88899
S        -10.87481      -16.85568       -1.72866
C        -10.67757      -18.18324       -2.81165
C        -10.20829      -17.74031       -4.03985
C        -10.02672      -16.32333       -4.07788
C         -9.93462      -18.59247       -5.16383
N         -9.75058      -19.29762       -6.06678
C        -11.02125      -19.47158       -2.30709
C        -11.58474      -20.40393       -3.08615
C        -11.97002      -21.70627       -2.59830
C        -12.58193      -22.66695       -3.30316
C        -12.51794      -24.05926       -2.75448
O        -12.32610      -24.40640       -1.60836
C        -12.64562      -24.93946       -3.92676
C        -12.49078      -26.31492       -3.92724
C        -12.57287      -26.98210       -5.15282
C        -12.76797      -26.23699       -6.35606
C        -12.83496      -26.91996       -7.57854
C        -12.73157      -28.30701       -7.61053
C        -12.55046      -29.02885       -6.43920
C        -12.46314      -28.37783       -5.21355
F        -12.46156      -30.36511       -6.47774
F        -12.81612      -28.94208       -8.78711
C        -12.90505      -24.83520       -6.31134
C        -12.88405      -24.18472       -5.08652
C        -13.08190      -22.76462       -4.68085
C        -13.83652      -21.85600       -5.34793
C        -14.27025      -20.63446       -4.75097
N        -14.63889      -19.64174       -4.27675
C        -14.35319      -22.09385       -6.65386
N        -14.76626      -22.29268       -7.71997
H         -4.11940        1.22745       -4.69784
H         -4.17878       -3.51694       -6.19320
H         -5.96711        0.76520       -3.11166
H         -5.83456       -4.05478       -4.42796
H         -9.33727       -2.43291        0.46903
H         -8.72169       -7.24670        1.88196
H         -9.94894       -7.76242       -0.34550
H        -10.47191       -3.19838       -2.32398
H        -11.11650       -3.74534       -4.78166
H        -11.01994       -8.59345       -3.04672
H         -8.03998       -7.88835       -2.65032
H         -8.02197       -9.69758       -0.43286
H         -7.36922      -13.85664        1.15841
H         -7.00388      -13.96796       -0.56520
H         -8.68230      -14.24733        0.05121
H         -8.72689       -9.30655       -5.35578
H         -8.98782       -8.76086       -9.16070
H         -7.92394       -9.21363       -7.81902
H         -9.37319       -8.18571       -7.53021
H        -11.07238      -12.43189       -7.17251
H        -10.83833      -13.09986       -4.68987
H         -8.24177      -14.23125       -2.68826
H        -11.28645      -13.82933       -2.35227
H         -9.67559      -15.77732       -4.94719
H        -10.87203      -19.66282       -1.24533
H        -11.75291      -20.19917       -4.13631
H        -11.63791      -21.94270       -1.58459
H        -12.30817      -26.84075       -2.99364
H        -12.98144      -26.38944       -8.51611
H        -12.31934      -28.97389       -4.31627
H        -13.02555      -24.28969       -7.24313
