110

C         -9.89408      -14.28390       -0.55335
C         -9.21058      -15.42699       -0.95930
F         -9.89722      -16.44447       -1.49675
C         -7.83374      -15.51570       -0.81333
F         -7.18172      -16.61480       -1.21583
C         -7.11494      -14.46749       -0.25001
C         -7.78041      -13.31042        0.17840
C         -9.19595      -13.20850        0.01846
C         -9.87331      -12.04009        0.42955
C         -9.15954      -11.00187        1.01605
C         -7.77152      -11.13081        1.14752
C         -7.06637      -12.25380        0.75106
C         -7.19129       -9.89479        1.68762
O         -6.06874       -9.77341        2.13325
C         -8.29380       -8.87746        1.63385
C         -9.55004       -9.65563        1.52350
C        -10.76967       -9.31049        1.99903
C        -11.84982      -10.24303        2.07064
N        -12.71037      -11.01428        2.14238
C        -11.03276       -8.03633        2.55308
N        -11.24030       -6.97826        2.98148
C         -8.08685       -7.55258        1.55338
C         -6.79665       -6.95348        1.56117
S         -6.18205       -6.28192        3.05282
C         -4.79723       -5.61764        2.29884
S         -3.75985       -4.69326        3.07744
C         -4.76660       -5.98867        0.99554
C         -5.88180       -6.72530        0.55797
C         -5.80604       -7.05230       -0.83637
C         -4.68433       -6.60644       -1.46753
S         -3.69547       -5.71026       -0.28956
O         -3.76523       -4.27658       -0.47691
O         -2.49857       -6.43629        0.06060
C         -4.26589       -6.87928       -2.83241
N         -3.51908       -6.02270       -3.66790
C         -2.95196       -4.72864       -3.37533
C         -1.52055       -4.84429       -2.87270
C         -3.27853       -6.58448       -4.94186
O         -2.67359       -6.13995       -5.89418
C         -3.95060       -7.87600       -4.84783
C         -4.52328       -7.99638       -3.53662
C         -5.19027       -9.31471       -3.49011
O         -5.78521       -9.76325       -2.52823
N         -4.97857       -9.84610       -4.78702
C         -5.42608      -11.16184       -5.24333
C         -6.21486      -11.97711       -4.22896
C         -4.23831       -8.95399       -5.57292
C         -3.86648       -9.14055       -6.95102
C         -4.75306       -9.31675       -7.94482
C         -4.40576       -9.39332       -9.37179
C         -5.34236       -8.96196      -10.31559
C         -5.01318       -8.97370      -11.67973
N         -6.02491       -8.50015      -12.60223
O         -7.09981       -9.11769      -12.62238
O         -5.76368       -7.49774      -13.27769
C         -3.76829       -9.41946      -12.14709
C         -2.86639       -9.91416      -11.19644
C         -3.18439       -9.90631       -9.82916
C         -3.37217       -9.42081      -13.56229
C         -3.58282      -10.48557      -14.34573
C         -3.18026      -10.54970      -15.72997
C         -3.92515      -10.70750      -16.83517
C         -3.17875      -10.54903      -18.13382
O         -1.97849      -10.51150      -18.31311
C         -4.19544      -10.42287      -19.18064
C         -3.93478      -10.28683      -20.53906
C         -5.01823      -10.27908      -21.42241
C         -6.34181      -10.35341      -20.90337
C         -7.42632      -10.38649      -21.79218
C         -7.20623      -10.36708      -23.16501
C         -5.91646      -10.28946      -23.67007
C         -4.82286      -10.23400      -22.81128
F         -5.71122      -10.28421      -24.99402
F         -8.25423      -10.44192      -23.99637
C         -6.55745      -10.43731      -19.51207
C         -5.48167      -10.51070      -18.63339
C         -5.36485      -10.80297      -17.15971
C         -6.39465      -11.23860      -16.39029
C         -6.22857      -11.90692      -15.14331
N         -6.15807      -12.52028      -14.16360
C         -7.76097      -11.15656      -16.78892
N         -8.87621      -11.07513      -17.10053
H        -10.97288      -14.25421       -0.68481
H         -6.03745      -14.56877       -0.15155
H        -10.94460      -11.96949        0.26051
H         -5.98649      -12.28393        0.87063
H         -8.91142       -6.85466        1.44743
H         -6.57163       -7.65451       -1.31204
H         -3.61138       -4.18420       -2.70529
H         -2.94078       -4.13811       -4.29867
H         -1.42322       -5.55740       -2.05155
H         -1.15287       -3.87307       -2.53159
H         -0.85974       -5.20090       -3.67002
H         -4.54314      -11.73241       -5.55748
H         -6.06055      -11.01699       -6.12384
H         -5.60603      -12.20952       -3.34928
H         -6.54581      -12.92384       -4.66629
H         -7.10793      -11.43405       -3.90260
H         -2.80877       -8.99588       -7.17310
H         -5.81707       -9.33582       -7.71771
H         -6.31778       -8.59610       -9.99870
H         -1.89955      -10.31084      -11.50408
H         -2.45582      -10.30700       -9.12703
H         -2.89779       -8.51132      -13.93062
H         -3.98630      -11.39279      -13.91230
H         -2.10043      -10.40644      -15.85607
H         -2.90755      -10.23491      -20.89230
H         -8.45026      -10.45773      -21.43296
H         -3.82617      -10.18224      -23.24133
H         -7.58565      -10.48441      -19.17384
