127

C        -10.27752        0.96783       -5.59769
C        -11.35389        0.72981       -6.44925
F        -11.55727        1.54783       -7.49044
C        -12.19906       -0.34963       -6.23601
F        -13.22262       -0.58152       -7.06889
C        -11.98376       -1.21184       -5.16730
C        -10.89759       -1.00150       -4.30497
C        -10.02417        0.10757       -4.51794
C         -8.90605        0.30671       -3.67555
C         -8.64497       -0.59212       -2.65056
C         -9.51184       -1.68262       -2.48502
C        -10.63716       -1.89758       -3.26609
C         -8.95753       -2.64520       -1.52366
O         -9.50354       -3.66341       -1.15627
C         -7.56860       -2.15409       -1.22890
C         -7.49608       -0.75043       -1.70180
C         -6.65789        0.20603       -1.27042
C         -6.76534        1.55694       -1.71374
N         -6.86625        2.64709       -2.10201
C         -5.62341       -0.02631       -0.30438
N         -4.74759       -0.18434        0.43149
C         -6.55522       -2.97220       -0.88172
C         -6.64582       -4.39148       -0.59674
C         -6.39940       -4.97317        0.60596
N         -5.92169       -4.29871        1.79589
O         -5.75545       -5.00183        2.80322
O         -5.68997       -3.08578        1.74833
C         -6.66247       -6.39004        0.58361
C         -7.04701       -6.73053       -0.65051
C         -7.07213       -5.53263       -1.48882
C         -7.42640       -5.51407       -2.79733
C         -7.34695       -4.33427       -3.67079
C         -7.91334       -4.63369       -4.84460
C         -8.28994       -6.02236       -4.80575
N         -8.91481       -6.66331       -5.92358
O         -9.67010       -7.60039       -5.68483
O         -8.70664       -6.18749       -7.04784
C         -8.00395       -6.62748       -3.62886
C         -8.17227       -8.05108       -3.33350
C         -9.00709       -8.58008       -2.41671
C         -9.00067       -9.97840       -1.99858
C         -8.70530      -10.30762       -0.72062
C         -8.55815      -11.74055       -0.57256
O         -8.25832      -12.17292        0.68257
C         -7.55290      -13.40027        0.80911
C         -8.76270      -12.36727       -1.75929
C         -9.07957      -11.27496       -2.72607
C         -9.43026      -11.44439       -4.01396
C        -10.15945      -10.47648       -4.81637
C        -10.36139      -11.03042       -6.02561
O        -11.09006      -10.62358       -7.09876
C        -11.91006       -9.48334       -6.86779
C         -9.74032      -12.33596       -6.06848
C         -9.22399      -12.61446       -4.85981
C         -8.87009      -13.80504       -1.91954
C         -9.89122      -14.55589       -1.45486
C         -9.85938      -15.99333       -1.48671
S         -8.36150      -16.83392       -1.24786
C         -9.01623      -18.36586       -1.64228
C        -10.35398      -18.22900       -1.97004
C        -10.88740      -16.93488       -1.56425
C        -12.39794      -16.72639       -1.51725
N        -12.88356      -15.86491       -0.34144
O        -14.05873      -15.47489       -0.39444
O        -12.11923      -15.68089        0.61625
C        -13.15273      -18.06732       -1.31956
C        -12.64716      -19.31249       -2.05973
C        -11.23889      -19.24531       -2.65697
N        -11.42614      -18.91116       -4.14407
O        -11.54261      -17.71930       -4.46464
O        -11.52347      -19.87052       -4.92005
C         -8.12174      -19.47432       -1.71761
C         -7.74704      -20.20480       -0.65409
C         -6.57763      -21.14141       -0.75626
O         -6.06883      -21.58131       -1.76421
C         -6.14753      -21.39298        0.63760
C         -5.14191      -22.24371        1.06270
C         -4.91029      -22.35182        2.44271
C         -5.63317      -21.51955        3.35321
C         -5.37018      -21.60697        4.72686
C         -4.45228      -22.53642        5.20261
C         -3.78382      -23.37844        4.32554
C         -3.99401      -23.28393        2.95223
F         -2.93400      -24.30122        4.79599
F         -4.23602      -22.62499        6.52188
C         -6.64079      -20.66152        2.88256
C         -6.94880      -20.66535        1.53196
C         -8.12595      -20.18063        0.76433
C         -9.37577      -20.39256        1.25122
C        -10.37432      -20.92066        0.39375
N        -11.12175      -21.48085       -0.29319
C         -9.68046      -20.47219        2.64098
N         -9.92807      -20.54413        3.77037
H         -9.63589        1.82081       -5.80439
H        -12.65987       -2.05307       -5.03537
H         -8.23754        1.13675       -3.88864
H        -11.25249       -2.77877       -3.10059
H         -5.53590       -2.59492       -0.80832
H         -6.55866       -7.05762        1.42536
H         -7.25705       -7.73961       -0.93558
H         -6.90286       -3.37979       -3.46111
H         -8.03408       -3.98627       -5.70145
H         -7.53501       -8.71386       -3.92038
H         -9.63705       -7.92065       -1.82047
H         -8.51800       -9.62743        0.09682
H         -7.30124      -13.53835        1.86458
H         -6.61995      -13.37745        0.23623
H         -8.16489      -14.25669        0.53094
H        -10.57728       -9.55474       -4.45382
H        -12.43570       -9.23252       -7.79149
H        -11.32008       -8.61174       -6.61356
H        -12.64528       -9.67582       -6.07957
H         -9.71116      -12.96282       -6.94508
H         -8.67431      -13.50559       -4.61116
H         -8.00601      -14.25487       -2.40101
H        -10.74761      -14.05906       -1.00359
H        -12.73701      -16.21486       -2.42459
H        -14.21435      -17.93288       -1.56655
H        -13.14665      -18.32316       -0.24791
H        -13.38448      -19.63156       -2.80639
H        -12.67964      -20.11665       -1.32238
H        -10.76240      -20.23206       -2.66551
H         -7.61666      -19.62768       -2.67221
H         -4.58863      -22.83623        0.33846
H         -5.89198      -20.97983        5.44562
H         -3.45486      -23.96374        2.29771
H         -7.20719      -20.05965        3.58916
