110

C         -1.54450       -2.77365        8.11259
C         -1.55671       -3.53330        9.28045
F         -1.05244       -3.00916       10.40591
C         -2.08213       -4.81704        9.28425
F         -2.09018       -5.54089       10.41288
C         -2.60323       -5.36772        8.12110
C         -2.59288       -4.62453        6.93208
C         -2.05904       -3.30136        6.91880
C         -2.05107       -2.54435        5.72194
C         -2.54378       -3.09557        4.54628
C         -3.06756       -4.39308        4.60793
C         -3.10535       -5.16949        5.75700
C         -3.58152       -4.81088        3.30463
O         -3.87008       -5.95661        3.03463
C         -3.54038       -3.58200        2.43442
C         -2.66891       -2.60133        3.13512
C         -1.99552       -1.56297        2.57827
C         -1.12597       -0.72265        3.32975
N         -0.42394       -0.03140        3.94844
C         -2.05366       -1.25725        1.18759
N         -2.11011       -1.01049        0.05153
C         -4.27312       -3.41129        1.32148
C         -5.16440       -4.38382        0.80017
O         -5.36238       -4.51385       -0.56544
C         -6.19404       -5.57863       -0.69131
C         -6.52017       -6.02141        0.57802
N         -5.92340       -5.21477        1.49921
C         -7.35043       -7.13653        0.72811
C         -7.83440       -7.77589       -0.41331
C         -7.46420       -7.28406       -1.65023
C         -6.65612       -6.17784       -1.84623
O         -8.03173       -8.06790       -2.58694
C         -8.81392       -8.97856       -1.89314
N         -8.66608       -8.85700       -0.57798
C         -9.68994       -9.84242       -2.59106
N        -10.24479      -11.05604       -2.18211
C         -9.94724      -11.78040       -0.95932
C        -10.84034      -11.40314        0.21180
C        -11.10055      -11.57965       -3.17688
O        -11.73971      -12.61054       -3.18986
C        -11.01591      -10.57278       -4.25853
C        -10.13069       -9.53875       -3.81247
C        -10.04252       -8.51363       -4.86156
O         -9.39221       -7.49020       -4.85845
N        -10.88343       -9.02831       -5.86582
C        -10.97167       -8.34147       -7.14035
C        -12.05318       -7.27255       -7.19201
C        -11.45094      -10.25131       -5.48033
C        -12.39270      -10.98804       -6.26621
C        -12.25476      -12.27853       -6.62465
C        -13.26877      -12.91618       -7.38447
O        -14.13032      -12.19531       -8.19776
C        -14.90465      -13.12772       -8.79371
C        -14.53426      -14.37173       -8.31795
N        -13.49028      -14.22311       -7.44426
C        -15.21308      -15.50411       -8.77858
C        -16.22307      -15.34285       -9.73256
C        -16.52094      -14.06837      -10.18214
C        -15.89566      -12.92429       -9.73297
O        -17.49275      -14.16510      -11.11624
C        -17.78375      -15.51110      -11.18528
N        -17.03375      -16.24648      -10.37062
C        -18.75017      -15.98332      -12.09451
C        -19.52437      -17.05764      -11.91760
C        -20.16605      -17.54283      -13.17516
O        -20.27320      -16.96239      -14.23565
C        -20.60345      -18.90964      -12.89708
C        -21.20258      -19.74567      -13.82452
C        -21.63208      -20.99773      -13.39135
C        -21.41370      -21.38931      -12.03733
C        -21.89554      -22.63533      -11.60958
C        -22.57697      -23.46571      -12.49576
C        -22.77150      -23.08374      -13.81548
C        -22.29837      -21.85989      -14.27175
F        -23.43007      -23.88676      -14.66176
F        -23.05457      -24.63829      -12.05783
C        -20.74946      -20.52054      -11.14078
C        -20.35602      -19.25528      -11.55945
C        -19.77791      -18.05669      -10.86348
C        -19.74454      -17.87474       -9.51596
C        -19.57857      -16.59130       -8.91420
N        -19.51340      -15.55141       -8.40045
C        -19.99739      -18.91374       -8.58520
N        -20.19896      -19.77483       -7.81585
H         -1.12303       -1.77273        8.15158
H         -3.01030       -6.37494        8.15673
H         -1.66096       -1.53176        5.75791
H         -3.53364       -6.16878        5.72145
H         -4.25317       -2.49378        0.74976
H         -7.60594       -7.49904        1.71655
H         -6.40464       -5.81266       -2.83452
H         -8.89052      -11.65223       -0.70410
H        -10.09553      -12.84932       -1.15935
H        -10.78869      -10.33417        0.43512
H        -10.53365      -11.95309        1.10907
H        -11.88589      -11.65608        0.00774
H        -11.08041       -9.06372       -7.95333
H        -10.01251       -7.83042       -7.30374
H        -13.04635       -7.69598       -7.02050
H        -12.05150       -6.78766       -8.17546
H        -11.88229       -6.49161       -6.44222
H        -13.30441      -10.45056       -6.52049
H        -11.39228      -12.88099       -6.36244
H        -14.95039      -16.48946       -8.40878
H        -16.15535      -11.93926      -10.09768
H        -18.78267      -15.43402      -13.03330
H        -21.35136      -19.40372      -14.84578
H        -21.76944      -22.96791      -10.58224
H        -22.47314      -21.58635      -15.30900
H        -20.58983      -20.86585      -10.12479
