100

C         -0.31887        1.76437       -6.41385
S         -1.11759        3.06542       -5.61193
C          0.36421        3.55476       -4.80420
O          0.37156        4.26733       -3.81350
N          1.43520        2.93322       -5.38579
C          1.15657        1.90537       -6.25171
O          1.98239        1.14935       -6.74474
C          2.76265        3.07902       -4.84298
C         -0.95983        0.72910       -6.97537
C         -0.33840       -0.46001       -7.52468
C          0.42139       -0.54732       -8.65038
N          0.73410        0.53779       -9.56771
O          0.49723        1.70832       -9.23995
O          1.21582        0.21286      -10.66362
C          0.86235       -1.89951       -8.89022
C          0.39260       -2.68691       -7.91509
C         -0.36953       -1.87267       -6.96978
C         -0.93012       -2.34878       -5.82742
C         -1.67669       -1.53403       -4.86626
C         -1.97213       -2.29818       -3.80593
C         -1.47150       -3.63629       -4.03626
N         -1.58742       -4.67510       -3.02500
O         -1.09476       -5.78907       -3.22801
O         -2.17682       -4.36568       -1.97923
C         -0.88656       -3.75250       -5.25239
C         -0.32473       -4.95568       -5.84656
C         -1.01915       -6.07389       -6.13071
C         -0.44064       -7.23165       -6.75905
N         -0.36520       -8.49544       -6.16084
C         -0.90970       -8.89013       -4.87914
C         -2.34403       -9.38564       -4.99086
C          0.25827       -9.43620       -7.00116
O          0.49243      -10.61781       -6.82873
C          0.56369       -8.63627       -8.19454
C          0.08206       -7.30073       -7.98847
C          0.33750       -6.54610       -9.23253
O          0.02646       -5.39884       -9.47471
N          0.98901       -7.48878      -10.05123
C          1.39592       -7.20053      -11.41532
C          2.48148       -6.13849      -11.49196
C          1.10371       -8.71503       -9.40680
C          1.66737       -9.87692      -10.00675
C          2.69373      -10.55070       -9.46745
C          3.25325      -11.75516      -10.01889
C          2.78872      -12.39433      -11.11093
C          3.59142      -13.58618      -11.34693
C          4.58931      -13.59634      -10.27439
C          4.37731      -12.51976       -9.50126
C          5.61151      -14.53523      -10.03110
N          6.45526      -15.30973       -9.82701
C          3.39525      -14.45008      -12.36245
C          4.19591      -15.64158      -12.63681
C          3.71151      -16.24455      -13.74146
C          2.57336      -15.46880      -14.21483
C          2.37078      -14.40987      -13.41674
C          1.32607      -13.47942      -13.62711
N          0.47048      -12.71533      -13.80494
C          4.28419      -17.44434      -14.29923
C          3.81736      -18.05528      -15.39774
C          4.42345      -19.24960      -15.94149
C          4.03345      -19.89096      -17.05027
S          2.74486      -19.49089      -18.11678
C          3.12534      -20.81415      -19.20349
O          2.53316      -20.99222      -20.25564
N          4.15879      -21.55179      -18.69481
C          4.74175      -21.10316      -17.53483
O          5.70974      -21.59838      -16.97516
C          4.69516      -22.69424      -19.39155
H          3.00442        4.13708       -4.71862
H          3.50711        2.59766       -5.48367
H          2.77596        2.59302       -3.86221
H         -2.04850        0.71425       -6.98257
H          1.45096       -2.21909       -9.73695
H          0.55191       -3.74574       -7.88784
H         -1.97270       -0.50465       -4.95781
H         -2.52121       -1.99428       -2.92655
H          0.74033       -4.91091       -6.07002
H         -2.07191       -6.15711       -5.87313
H         -0.83557       -8.06074       -4.17675
H         -0.29379       -9.70499       -4.47936
H         -2.98525       -8.65207       -5.48931
H         -2.75575       -9.58310       -3.99602
H         -2.39385      -10.31678       -5.56623
H          0.51015       -6.85806      -11.96125
H          1.75463       -8.10957      -11.90850
H          2.12366       -5.17482      -11.11693
H          2.79732       -5.99658      -12.53049
H          3.35704       -6.42612      -10.90135
H          1.18702      -10.19335      -10.92821
H          3.14755      -10.20068       -8.54134
H          1.94984      -12.06645      -11.69576
H          4.94158      -12.23654       -8.62401
H          5.04173      -15.99744      -12.07201
H          1.98127      -15.72203      -15.08213
H          5.15079      -17.85069      -13.77896
H          2.95425      -17.65169      -15.92083
H          5.27979      -19.64433      -15.39257
H          4.01466      -23.03751      -20.17448
H          4.87725      -23.50341      -18.67781
H          5.65083      -22.40554      -19.83957
