76

C         -0.07142        0.73128        0.78649
F         -0.12056        1.40413        1.94477
C         -0.04790        1.39512       -0.43833
C         -0.06109        2.87396       -0.48215
O         -0.08723        3.56164        0.52458
O         -0.03913        3.42995       -1.71296
C         -0.01423        0.62227       -1.59122
F          0.00577        1.20311       -2.80063
C         -0.00575       -0.77204       -1.52736
F         -0.00890       -1.44397       -2.68860
C         -0.01672       -1.46571       -0.30856
C         -0.04929       -0.66586        0.84586
F         -0.04902       -1.24095        2.05910
C         -0.00542       -2.93760       -0.25324
C          0.61264       -3.73921       -1.19833
N          0.62940       -5.08737       -1.17332
C         -0.00289       -5.69262       -0.16443
N         -0.64336       -5.02395        0.80433
C         -0.62214       -3.67535        0.74221
C          0.02274       -7.16138       -0.11923
N         -0.48472       -7.97424        0.91487
C         -1.13082       -7.53550        2.13729
C         -2.63350       -7.36535        1.97486
C         -0.31081       -9.34278        0.63390
O         -0.63256      -10.31769        1.28171
C          0.37970       -9.32411       -0.66312
C          0.55239       -7.95059       -1.06532
C          1.24724       -7.96157       -2.37309
O          1.59555       -7.02340       -3.05938
N          1.41561       -9.33917       -2.62589
C          2.07492       -9.82604       -3.82132
C          1.10673       -9.99672       -4.98043
C          0.89295      -10.12063       -1.59972
C          0.92962      -11.55148       -1.61805
C          1.52418      -12.28808       -0.66612
C          1.59235      -13.74683       -0.68768
N          2.25575      -14.32344        0.32839
C          2.33535      -15.66366        0.29893
C          1.80263      -16.42848       -0.70827
C          1.14820      -15.73717       -1.70723
N          1.02547      -14.39966       -1.71677
C          0.59499      -16.47246       -2.84691
C         -0.46527      -16.07849       -3.57148
C         -0.98774      -16.84419       -4.71730
C         -0.88932      -18.23744       -4.81867
C         -1.37552      -18.92806       -5.93167
C         -2.00231      -18.25036       -6.97576
C         -2.13275      -16.86561       -6.86746
C         -1.64044      -16.17660       -5.75637
F         -1.79529      -14.84445       -5.71125
F         -2.73038      -16.16482       -7.84553
C         -2.50752      -19.00998       -8.14291
O         -2.41278      -20.21967       -8.23315
O         -3.08734      -18.27475       -9.11506
F         -1.21206      -20.25808       -5.95844
F         -0.32218      -18.95495       -3.83731
H         -0.01567        2.83195       -2.48667
H          1.15094       -3.32632       -2.04841
H         -1.15540       -3.20296        1.56384
H         -0.66026       -6.62352        2.51277
H         -0.95266       -8.29429        2.90824
H         -2.88019       -6.65800        1.17713
H         -3.07536       -6.99698        2.90632
H         -3.10851       -8.32093        1.72931
H          2.58816      -10.76911       -3.60556
H          2.84454       -9.09988       -4.10818
H          0.30835      -10.70267       -4.73088
H          1.63415      -10.37401       -5.86214
H          0.63879       -9.04287       -5.24542
H          0.46478      -12.03327       -2.47544
H          2.01069      -11.82511        0.18663
H          2.85905      -16.11935        1.13405
H          1.88648      -17.50668       -0.70347
H          1.12180      -17.39397       -3.07758
H         -0.97427      -15.14387       -3.33488
H         -3.12917      -17.30570       -8.98737
