110

C         -3.37350      -26.22748       -8.81726
O         -2.84946      -25.58364       -7.72258
C         -3.72245      -24.60215       -7.45355
C         -4.78890      -24.59633       -8.33763
C         -4.56880      -25.65191       -9.23014
C         -5.67900      -23.51070       -7.98160
S         -7.06487      -23.08133       -8.72339
C         -5.06409      -22.88184       -6.83068
C         -3.89406      -23.54684       -6.52893
O         -3.26822      -23.00837       -5.47581
C         -4.05448      -21.93443       -5.04789
C         -5.17870      -21.85234       -5.89048
C         -3.65424      -21.13133       -3.93711
C         -4.37550      -20.08916       -3.49367
C         -3.95314      -19.25098       -2.41698
O         -4.72619      -18.15553       -2.01261
C         -4.05013      -17.54769       -1.02869
C         -2.86289      -18.19135       -0.75036
C         -2.79655      -19.28896       -1.61673
C         -2.17544      -17.46937        0.29907
S         -0.75102      -17.85050        0.99328
C         -3.03330      -16.34254        0.60370
C         -4.16101      -16.40942       -0.18991
O         -5.01882      -15.41153        0.07563
C         -4.42129      -14.62062        1.06299
C         -3.18105      -15.19922        1.39608
C         -5.07491      -13.49977        1.66313
C         -4.40800      -12.38448        2.01909
C         -4.99367      -11.41996        2.98817
C         -5.70292      -10.21357        2.67124
O         -5.71311      -10.07264        1.31833
C         -5.53859       -8.81614        0.70812
C         -6.74001       -8.69003       -0.18503
C         -6.30970       -9.42187        3.69727
C         -6.17525       -9.99075        5.01058
C         -5.40764      -11.11980        5.32753
C         -4.78687      -11.79978        4.31019
O         -5.35911      -11.47233        6.64619
C         -4.46975      -12.52515        7.04266
C         -4.99479      -13.91416        6.69744
C         -7.02748       -8.04092        3.70510
C         -8.03308       -7.47882        2.84885
O         -8.73580       -8.19861        1.91397
C         -9.30577       -9.45271        2.33899
C         -9.58837      -10.31306        1.10584
C         -8.39709       -6.06849        2.92885
C         -8.03879       -5.35995        4.09009
C         -7.20105       -5.93039        5.04034
C         -6.62421       -7.16908        4.76062
O         -6.81003       -5.28216        6.17449
C         -7.78649       -4.41146        6.76689
C         -7.30915       -2.96958        6.69039
C         -8.71091       -5.13556        1.76980
C         -9.53873       -3.97224        1.84484
O        -10.53865       -3.90705        2.79246
C        -10.94637       -2.59970        3.25332
C        -11.94125       -1.85712        2.36088
C         -9.31316       -2.89418        0.95623
C         -8.35151       -2.96938       -0.04146
C         -7.57979       -4.10761       -0.18101
C         -7.75355       -5.16115        0.71823
O         -6.64756       -4.02032       -1.17913
C         -5.82699       -5.14915       -1.44740
C         -6.55239       -6.13621       -2.34546
H         -2.78715      -27.06161       -9.18009
H         -5.17649      -25.96978      -10.06573
H         -5.97214      -21.12073       -5.81923
H         -2.71097      -21.40739       -3.47608
H         -5.31842      -19.81616       -3.95681
H         -2.00027      -20.01766       -1.68853
H         -2.50579      -14.83548        2.15869
H         -6.12562      -13.62353        1.91085
H         -3.35894      -12.23486        1.78622
H         -4.64166       -8.85432        0.07566
H         -5.40948       -7.99320        1.41382
H         -7.60673       -9.08483        0.31497
H         -6.65598       -9.29407       -1.08906
H         -6.94230       -7.66407       -0.43633
H         -6.67020       -9.50740        5.85515
H         -4.15701      -12.65890        4.49852
H         -4.40287      -12.45441        8.13435
H         -3.45153      -12.35695        6.66801
H         -6.08753      -13.93233        6.64762
H         -4.64935      -14.64984        7.42869
H         -4.61866      -14.25758        5.72794
H        -10.24857       -9.25859        2.86280
H         -8.66049      -10.02208        3.00902
H        -10.38523      -11.03714        1.29067
H         -8.69499      -10.88811        0.83561
H         -9.85467       -9.70015        0.23816
H         -8.28362       -4.29128        4.19394
H         -5.83442       -7.48447        5.45671
H         -7.88475       -4.70092        7.81644
H         -8.79094       -4.50790        6.33328
H         -6.40209       -2.83945        7.29180
H         -8.07512       -2.28594        7.07080
H         -7.05762       -2.68392        5.66517
H        -10.06132       -1.98448        3.46272
H        -11.43272       -2.75715        4.22304
H        -11.90242       -2.14661        1.30760
H        -11.76795       -0.77680        2.43306
H        -12.97215       -2.03190        2.68957
H         -9.83963       -1.95545        1.02768
H         -8.18753       -2.11638       -0.69508
H         -7.05690       -5.98500        0.71853
H         -5.43904       -5.60556       -0.52921
H         -4.94738       -4.77930       -1.98377
H         -7.54267       -6.39119       -1.95407
H         -5.96217       -7.05102       -2.45967
H         -6.72311       -5.70636       -3.33409
