87

C          1.79455       -2.54471       -0.95708
O          2.64933       -1.57304       -1.36300
C          3.15834       -0.94619       -0.24521
C          2.58587       -1.54356        0.87167
C          1.72684       -2.55979        0.41133
C          0.94062       -3.44739        1.18508
N          0.30306       -4.16285        1.84659
C          4.12170        0.08999       -0.33228
C          4.60744        0.70147        0.75968
C          5.68636        1.63950        0.71371
N          5.67157        2.89952        1.30337
C          4.56166        3.52746        1.99300
C          3.71178        4.39833        1.08024
C          6.90537        3.56362        1.12945
O          7.23673        4.68257        1.46410
C          7.72155        2.56634        0.40644
C          6.89479        1.41460        0.18570
C          7.69140        0.39442       -0.50795
O          7.33526       -0.71127       -0.85667
N          8.93647        1.03333       -0.65420
C         10.05354        0.37296       -1.29778
C         10.85055       -0.48800       -0.33110
C          8.93120        2.31931       -0.10288
C         10.10088        3.15046       -0.07790
C         10.08825        4.49134       -0.13391
C         11.29622        5.23982       -0.13764
S         12.05201        5.53879       -1.64200
C         13.15516        6.73296       -1.03381
C         12.83655        6.95649        0.31278
C         12.00949        5.86800        0.86295
C         11.82829        5.69735        2.25044
N         11.16887        4.56591        2.85366
O         11.55079        3.43456        2.52302
O         10.33984        4.80812        3.74103
C         12.47949        6.63061        3.07208
C         13.15846        7.75240        2.53175
C         13.34202        7.99847        1.14212
N         13.79632        9.26246        0.75200
C         14.25265        7.27689       -1.94355
C         14.09788        7.41224       -3.34143
C         15.08183        8.09271       -4.10852
N         14.97231        8.12291       -5.46437
C         13.96247        7.46289       -6.06427
C         13.00805        6.82916       -5.33112
N         13.04792        6.84614       -3.98786
C         16.17951        8.69500       -3.46781
C         16.45451        8.32578       -2.13624
C         15.51786        7.55606       -1.39839
N         15.86026        7.07347       -0.17580
C         17.06638        7.38221        0.33590
C         17.93106        8.19777       -0.33456
N         17.63679        8.66143       -1.56149
C         17.07843        9.66177       -4.18360
S         17.82506       11.03863       -3.37160
C         18.66945       11.59513       -4.78366
C         18.28182       10.81638       -5.80842
C         17.43326        9.78213       -5.48438
N         17.09486        9.06399       -6.59011
N         17.68919        9.58304       -7.71327
C         18.41296       10.63921       -7.22525
H          1.32712       -3.12646       -1.73918
H          2.78031       -1.29224        1.90100
H          4.48778        0.33263       -1.32645
H          4.25494        0.45426        1.75734
H          4.97808        4.16302        2.78377
H          3.94432        2.76816        2.48310
H          4.31784        5.15816        0.57591
H          2.94133        4.91433        1.66353
H          3.21275        3.80009        0.31173
H         10.69867        1.11623       -1.77723
H          9.65514       -0.26649       -2.09367
H         11.29946        0.11790        0.46228
H         11.65515       -1.00548       -0.86275
H         10.21563       -1.24301        0.14460
H         11.05466        2.63583        0.00699
H          9.15748        5.04932       -0.21997
H         12.43356        6.52006        4.15578
H         13.54511        8.48481        3.24179
H         14.58864        9.60545        1.28321
H         13.87458        9.41712       -0.24293
H         13.96183        7.45353       -7.14832
H         12.19733        6.27402       -5.78686
H         17.30705        6.95453        1.30139
H         18.88773        8.49707        0.07618
H         19.33179       12.44844       -4.75580
H         16.41372        8.31303       -6.63948
H         18.98372       11.23435       -7.92614
