104

C          1.03611        5.16234        2.34983
O          2.25133        5.03532        1.75362
C          2.75580        3.80188        2.07899
C          1.82389        3.15585        2.88735
C          0.75565        4.05022        3.10215
C         -0.37682        3.86280        3.94346
N         -1.27810        3.70947        4.65707
C          3.99305        3.26608        1.65462
C          5.11998        3.97980        1.49085
C          6.49938        3.43925        1.16544
C          6.61728        3.13964       -0.31868
O          6.53575        3.96075       -1.21761
O          6.83227        1.80110       -0.52528
C          6.82585        1.07493        0.71784
C          7.09001        2.14799        1.75103
C          6.79286        1.73471        3.17654
C          5.50429        0.96419        3.39629
C          5.06966       -0.00553        2.28650
C          5.51062        0.30419        0.86540
O          5.58985       -0.97284        0.20782
C          5.47259       -2.00173        1.10085
O          5.43849       -3.17591        0.77427
C          5.51195       -1.45528        2.51376
C          4.62753       -2.07236        3.56822
C          4.07173       -3.28412        3.67991
C          3.13429       -3.76084        4.77412
C          1.70632       -3.53909        4.28949
O          1.18930       -4.07808        3.32336
O          1.07184       -2.60849        5.06755
C          1.92388       -2.14452        6.13028
C          3.02463       -3.17678        6.19583
C          4.24532       -2.74144        6.99340
C          4.70137       -1.28920        6.86337
C          3.61265       -0.23147        6.62562
C          2.38147       -0.70648        5.86207
O          1.34906        0.21454        6.24091
C          1.67001        0.86650        7.39343
O          0.91505        1.64720        7.95154
C          3.05087        0.44469        7.88791
C          3.96050        1.54939        8.45267
C          3.69264        2.86783        8.54559
C          4.57915        3.89022        9.05153
S          3.90955        4.95622       10.23837
C          5.31791        5.95985       10.43228
C          6.11441        5.72429        9.29986
C          5.83501        4.37121        8.69870
C          6.69622        3.80167        7.72253
C          6.55447        2.52276        7.12129
N          6.54566        1.48951        6.59246
C          7.80808        4.58447        7.35473
C          8.01420        5.89406        7.82555
C          7.17002        6.52715        8.76587
C          7.23543        7.95357        8.81530
N          7.34000        9.10749        8.73820
C          5.42515        6.86001       11.62829
S          6.66418        8.06806       11.72609
C          6.10042        8.83723       13.14800
C          5.16672        8.00764       13.72751
C          4.77669        6.87818       12.87371
C          3.86214        5.91307       13.34456
C          3.37393        6.14257       14.66390
C          2.44935        5.17406       15.18157
N          1.70937        4.37396       15.58649
C          3.76744        7.24785       15.47659
C          3.25364        7.39918       16.81308
N          2.85707        7.53896       17.89319
C          4.68837        8.22054       15.03415
C          6.71596       10.07076       13.52824
C          6.06366       11.05540       14.15943
H          0.51921        6.09273        2.16126
H          1.93579        2.16374        3.30444
H          3.98316        2.20818        1.53744
H          5.06674        5.06161        1.59559
H          7.21131        4.24202        1.40018
H          7.66271        0.36741        0.68644
H          8.17977        2.32133        1.72954
H          6.82372        2.60881        3.83845
H          7.61385        1.08466        3.51084
H          4.69783        1.67516        3.59939
H          5.61142        0.42163        4.33863
H          3.96686       -0.00201        2.28558
H          4.72179        0.83126        0.32089
H          6.55443       -1.48381        2.85093
H          4.38569       -1.36967        4.34003
H          4.25911       -4.02265        2.89669
H          3.29100       -4.84273        4.88172
H          1.32552       -2.17307        7.04882
H          2.60336       -4.01682        6.77581
H          5.08544       -3.41719        6.79234
H          4.00033       -2.88866        8.05469
H          5.43275       -1.24372        6.05032
H          5.29331       -1.02768        7.74842
H          4.05896        0.56901        6.02043
H          2.51072       -0.55913        4.78482
H          2.88549       -0.30666        8.66919
H          4.91724        1.17887        8.81623
H          2.70487        3.22733        8.25545
H          8.51401        4.19308        6.61855
H          8.84024        6.46298        7.39004
H          3.54778        5.02766       12.81016
H          5.01286        9.02967       15.67772
H          7.75151       10.24704       13.23764
H          5.01498       11.00225       14.43277
H          6.57602       11.98401       14.40001
