103

C          3.50101       -1.41976       -2.74451
O          4.26092       -0.35325       -3.08650
C          4.68829        0.25721       -1.93073
C          4.17777       -0.45609       -0.85353
C          3.43092       -1.53372       -1.38171
C          2.74118       -2.54788       -0.67494
N          2.17692       -3.38498       -0.09018
C          5.50230        1.41248       -1.91102
C          6.35172        1.66651       -2.91995
C          7.20463        2.81038       -2.91050
S          7.80012        3.41260       -1.41096
C          8.62299        4.74885       -2.10935
C          8.54347        4.66409       -3.48919
C          7.73241        3.55824       -3.94771
C          7.47855        3.29406       -5.30510
C          8.10549        4.20549       -6.19712
C          7.84585        3.99588       -7.63572
C          8.58985        3.22555       -8.44216
C          8.90597        5.32069       -5.73826
C          9.53505        6.27290       -6.73139
C          9.15599        5.57937       -4.35756
C          9.30364        5.67482       -1.25881
C          8.83708        6.01443       -0.04312
C          9.46721        6.93240        0.91405
C          9.30779        6.72904        2.29757
C          8.57438        5.70795        3.08494
O          7.92896        4.79554        2.59833
N          8.73405        6.02281        4.42358
C          9.49952        7.15218        4.56917
O          9.84037        7.77959        5.55494
C          9.86344        7.59705        3.23367
C         10.59559        8.71449        2.89097
C         10.73140        8.92169        1.53136
C         10.18958        8.08739        0.56867
C         10.50102        8.71594       -0.71744
O         10.17478        8.36679       -1.83122
O         11.23767        9.82578       -0.44089
C         11.40734       10.01944        0.88418
O         11.99528       10.92469        1.43728
C          8.15292        5.29436        5.44757
C          8.28059        5.56988        6.75604
C          7.68000        4.82154        7.83943
C          7.91948        3.52810        8.16169
N          8.82896        2.65979        7.44676
O          9.81647        3.15310        6.88446
O          8.56578        1.45336        7.47282
C          7.23647        3.13466        9.37308
C          6.60287        4.20557        9.87831
C          6.83426        5.33626        8.97300
C          6.37370        6.59532        9.15112
C          6.42247        7.64740        8.13176
C          6.01043        8.79404        8.69107
C          5.66252        8.52724       10.07062
N          5.29979        9.58327       10.99514
O          5.60875        9.48065       12.18716
O          4.74219       10.57471       10.50259
C          5.78531        7.21465       10.37389
C          5.53589        6.69699       11.67532
S          6.86028        6.55606       12.76437
C          5.86367        6.21140       14.14113
C          4.53971        6.13141       13.73399
C          4.36479        6.33188       12.31162
C          3.12556        6.24892       11.65983
C          2.04587        5.95181       12.53495
C          0.72275        5.80122       11.90739
C         -0.10456        6.83633       11.72137
C          2.20205        5.79809       13.96409
C          0.99071        5.56911       14.84485
C          3.47003        5.87559       14.60848
C          6.45412        6.08877       15.44044
C          7.71488        5.67412       15.63452
H          3.09697       -1.98512       -3.57271
H          4.35156       -0.22700        0.19056
H          5.41784        2.06124       -1.04400
H          6.41250        0.99439       -3.77204
H          6.84684        2.48914       -5.65888
H          6.97088        4.50437       -8.03207
H          9.46960        2.69129       -8.10336
H          8.31596        3.11554       -9.48927
H          8.80961        6.59061       -7.48665
H         10.39239        5.79648       -7.21600
H          9.88911        7.18356       -6.23458
H          9.75118        6.42350       -4.02819
H         10.21796        6.09504       -1.65856
H          7.91458        5.55977        0.31769
H         11.00856        9.39081        3.63214
H          7.56032        4.44087        5.11761
H          8.87892        6.41072        7.10030
H          7.23245        2.13241        9.77468
H          5.97431        4.19311       10.75407
H          6.67475        7.53405        7.09074
H          5.91191        9.75024        8.19946
H          2.98067        6.38283       10.59481
H          0.44628        4.79845       11.59228
H          0.15560        7.84243       12.03605
H         -1.07300        6.69230       11.25187
H          0.31555        6.43002       14.79442
H          1.27928        5.44728       15.89490
H          0.45593        4.66188       14.54699
H          3.57326        5.75931       15.68032
H          5.84914        6.33779       16.30877
H          8.37745        5.39541       14.82071
H          8.12880        5.60060       16.63441
