108

C          0.52130        5.41297        3.18380
C          0.58928        4.65299        4.28964
N          1.78208        4.57689        5.09306
O          1.83980        3.66169        5.92606
O          2.66530        5.42404        4.90266
C         -0.65915        3.97457        4.54061
C         -1.52857        4.32122        3.57162
C         -0.83617        5.23462        2.65246
C         -1.31281        5.82221        1.53717
C         -0.53562        6.74314        0.70765
C         -1.33080        7.16215       -0.28549
C         -2.62178        6.52230       -0.15157
N         -3.67659        6.68022       -1.14379
O         -3.43016        7.44519       -2.08654
O         -4.73985        6.06511       -1.01456
C         -2.65860        5.69664        0.91963
C         -3.70998        4.79130        1.30989
C         -4.91261        5.15905        1.78862
C         -6.02113        4.21869        2.03704
C         -7.27000        4.73716        2.40101
C         -8.36485        3.87164        2.51863
N         -9.62496        4.44333        2.94625
O        -10.18707        5.21103        2.15503
O        -10.00262        4.17763        4.09389
C         -8.25767        2.50048        2.25265
C         -6.99964        1.98360        1.95442
C         -5.89591        2.83370        1.85751
C         -9.37911        1.57340        2.21937
C        -10.14516        1.41350        1.12610
C        -11.31379        0.57287        1.10217
N        -11.83393       -0.06187       -0.03881
C        -11.19705       -0.07761       -1.35217
C        -12.13281       -0.32607       -2.53120
C        -12.98299       -0.82444        0.29166
O        -13.67336       -1.56003       -0.38174
C        -13.18711       -0.52060        1.71850
C        -12.12181        0.32941        2.14149
C        -12.32159        0.62912        3.56439
O        -11.62418        1.31987        4.28139
N        -13.50707       -0.06813        3.88069
C        -14.09381        0.12671        5.19304
C        -14.38474       -1.11731        6.01735
C        -14.01198       -0.72802        2.74953
C        -15.17868       -1.56141        2.68385
C        -16.29523       -1.40875        3.40545
C        -17.39905       -2.30715        3.39215
C        -17.29354       -3.62430        3.78339
S        -18.79915       -4.42776        3.70823
C        -19.58403       -3.01645        3.13810
C        -18.72857       -1.93497        3.02092
C        -19.13396       -0.60142        2.59044
O        -18.58824        0.42104        2.99677
O        -20.15665       -0.64316        1.67425
C        -20.64431        0.62461        1.36805
C        -20.04359        1.51286        0.56356
C        -20.54628        2.84267        0.26784
C        -21.77315        3.16182       -0.21481
N        -22.85806        2.24239       -0.44401
O        -23.28352        1.58719        0.51459
O        -23.36376        2.25353       -1.57439
C        -21.90610        4.55692       -0.53324
C        -20.75673        5.17010       -0.22973
C        -19.80151        4.17109        0.26667
C        -18.54476        4.46408        0.69115
C        -17.62029        3.49500        1.29835
C        -16.53080        4.14996        1.71714
C        -16.69342        5.54388        1.40465
N        -15.72035        6.54251        1.77302
O        -14.53256        6.26572        1.56338
O        -16.12478        7.57445        2.32672
C        -17.84293        5.80037        0.74047
C        -18.21378        7.11909        0.25529
C        -18.56495        7.42947       -0.99921
H          1.30497        6.02434        2.76763
H         -0.84831        3.32296        5.37970
H         -2.55140        3.98735        3.51578
H          0.49765        7.03004        0.84919
H         -1.05744        7.83555       -1.09093
H         -3.44810        3.74957        1.15870
H         -5.14197        6.21533        1.91453
H         -7.40640        5.80345        2.56871
H         -6.86482        0.91971        1.77630
H         -4.94621        2.37347        1.60259
H         -9.55000        1.03581        3.14899
H         -9.91505        1.97273        0.22220
H        -10.41543       -0.84313       -1.33560
H        -10.71910        0.89286       -1.52009
H        -12.49361       -1.35914       -2.54401
H        -11.60420       -0.16123       -3.47604
H        -12.99908        0.34271       -2.50329
H        -14.98444        0.75183        5.07270
H        -13.40033        0.73117        5.79129
H        -15.08043       -1.80796        5.54476
H        -14.83629       -0.81738        6.96962
H        -13.47014       -1.67575        6.23156
H        -15.13708       -2.36719        1.94903
H        -16.40962       -0.54532        4.05385
H        -16.41301       -4.15051        4.13024
H        -20.64761       -3.04663        2.94315
H        -21.58557        0.75849        1.88516
H        -19.08490        1.25195        0.12019
H        -22.79756        5.01580       -0.93166
H        -20.61615        6.22945       -0.32536
H        -17.76647        2.43824        1.43688
H        -15.66771        3.72696        2.21751
H        -18.13467        7.93951        0.96952
H        -18.65215        6.68822       -1.78680
H        -18.80039        8.45943       -1.25735
