90

C         -0.93238       -0.27080        1.42905
S         -1.42720       -1.82900        0.88132
C         -2.09915       -1.20140       -0.60614
C         -2.00124        0.16548       -0.58955
C         -1.32067        0.68364        0.53481
C         -1.18281        2.11656        0.43867
O         -0.66337        2.84724        1.26406
C         -1.82165        2.54748       -0.89364
C         -2.38356        1.23796       -1.47887
O         -3.05204        1.11764       -2.49154
C         -2.56978       -2.11096       -1.59151
C         -1.83096       -2.51297       -2.65542
N         -0.51063       -2.03741       -3.00892
O         -0.18270       -2.16282       -4.19658
O          0.22198       -1.57121       -2.12791
C         -2.44808       -3.62481       -3.33887
C         -3.57769       -3.95101       -2.69523
C         -3.78900       -2.98735       -1.60873
C         -4.87634       -2.91512       -0.80445
C         -5.12713       -1.83033        0.14804
C         -6.24383       -2.12042        0.83794
C         -6.76217       -3.37326        0.35034
N         -7.91937       -4.02630        0.93031
O         -8.18043       -3.74142        2.10719
O         -8.57533       -4.81570        0.23812
C         -6.02102       -3.87157       -0.66549
C         -6.26323       -5.14732       -1.30332
C         -6.55753       -5.29604       -2.60408
C         -6.80063       -6.55196       -3.21057
S         -7.73233       -6.67314       -4.66997
C         -7.60551       -8.41136       -4.76702
C         -6.81643       -8.79697       -3.73600
C         -6.36904       -7.79748       -2.89448
N         -5.54120       -8.18222       -1.87418
C         -5.46261       -9.55716       -2.06268
C         -4.69666      -10.39596       -1.20031
N         -4.06756      -11.04409       -0.47349
C         -6.21062       -9.96090       -3.18843
C         -8.26567       -9.08803       -5.82309
C         -8.67199      -10.36093       -5.70758
C         -9.37520      -11.06730       -6.75839
C         -8.92046      -11.31687       -8.00948
N         -7.62519      -10.92405       -8.51465
O         -7.56308      -10.64993       -9.72111
O         -6.66030      -10.92141       -7.73984
C         -9.87794      -12.04458       -8.80417
C        -10.95430      -12.29418       -8.04507
C        -10.71714      -11.74384       -6.70249
C        -11.57448      -11.83412       -5.65669
C        -11.44157      -11.09532       -4.39840
C        -12.49603      -11.39078       -3.62532
C        -13.33358      -12.34139       -4.32531
N        -14.52534      -12.91771       -3.72602
O        -15.20643      -13.72306       -4.37220
O        -14.79359      -12.55360       -2.57068
C        -12.83234      -12.64701       -5.54563
C        -13.38746      -13.60905       -6.47793
C        -12.72860      -14.69593       -6.91017
C        -13.28439      -15.60716       -7.85274
S        -12.72612      -17.26199       -7.82427
C        -13.77806      -17.75759       -9.08910
C        -14.49500      -16.68949       -9.53946
C        -14.20245      -15.47646       -8.87160
C        -14.97099      -14.39871       -9.46785
O        -14.90015      -13.21101       -9.19207
C        -15.86980      -15.01043      -10.55648
C        -15.49165      -16.49588      -10.56593
O        -15.94575      -17.35687      -11.30066
H         -0.38746       -0.15294        2.35695
H         -1.05154        2.94456       -1.55747
H         -2.62755        3.25979       -0.70915
H         -2.02572       -4.13645       -4.19315
H         -4.19673       -4.77320       -2.99299
H         -4.56795       -0.91626        0.26563
H         -6.71162       -1.51440        1.59964
H         -6.29849       -5.98875       -0.62005
H         -6.63027       -4.41292       -3.23962
H         -5.09069       -7.60806       -1.17536
H         -6.28028      -10.97601       -3.55947
H         -8.46009       -8.52963       -6.73633
H         -8.51567      -10.92211       -4.78803
H         -9.75143      -12.29518       -9.84683
H        -11.85485      -12.75254       -8.41609
H        -10.68899      -10.37332       -4.13118
H        -12.71123      -10.98124       -2.64841
H        -14.41032      -13.40950       -6.79200
H        -11.72644      -14.90097       -6.53658
H        -13.80118      -18.78454       -9.42960
H        -15.64115      -14.56253      -11.52589
H        -16.91976      -14.89458      -10.27885
