73

C         11.23937        0.88800        3.34383
C         10.36427        1.89512        3.39010
C          8.96835        1.66164        3.42429
C          7.98684        2.51806        2.98120
C          6.73475        1.89610        3.19667
C          5.55890        2.59167        2.80373
N          4.62854        3.19154        2.44935
C          6.95459        0.65382        3.79988
C          6.10907       -0.44572        4.30332
S          6.88905       -1.75610        5.14099
C          5.46129       -2.70470        5.41452
C          5.55570       -4.03379        6.07131
S          4.26702       -4.55844        7.11098
C          4.88650       -6.13805        7.38505
C          4.05632       -7.04373        8.11988
C          4.53684       -7.95335        8.98266
C          3.70141       -8.88355        9.65874
C          2.31782       -8.98538        9.72850
C          2.02318      -10.08476       10.55708
C          0.72248      -10.54649       10.90264
N         -0.33767      -10.92485       11.19042
C          3.21742      -10.64671       10.98375
C          3.42728      -11.76245       11.84503
C          4.53977      -12.51338       11.76503
C          4.80495      -13.67209       12.56507
C          4.32420      -13.86635       13.84554
S          4.82538      -15.36613       14.50869
C          5.68436      -15.75855       13.09739
N          6.38883      -17.01006       12.99248
O          6.97227      -17.22130       11.92119
O          6.36448      -17.78264       13.95955
C          5.61054      -14.77297       12.13442
O          4.22654       -9.90806       10.41502
C          6.13752       -6.23150        6.81134
C          6.92617       -7.39377        6.90360
C          8.21748       -7.28360        6.33342
N          9.08654       -8.47077        6.47321
O          8.61882       -9.44638        7.08037
O         10.21299       -8.44955        5.97640
C          8.62235       -6.10136        5.65275
N          9.95962       -5.97306        5.10990
O         10.86353       -5.72931        5.91800
O         10.05908       -6.01262        3.87833
C          7.79905       -4.94558        5.45515
C          6.54414       -5.02453        6.08687
C          4.36388       -1.96273        4.97332
C          3.00101       -2.34526        5.09556
C          2.07578       -1.40392        4.56883
N          0.66432       -1.70255        4.71172
O          0.24496       -1.87499        5.86147
O          0.00658       -1.79730        3.67041
C          2.46197       -0.22918        3.90279
N          1.47824        0.68502        3.35473
O          0.74673        1.26259        4.16541
O          1.50088        0.85169        2.13025
C          3.80184        0.15049        3.73213
C          4.74968       -0.70406        4.30567
O          8.34082        0.53987        3.90415
H         12.30313        1.09430        3.28184
H         10.92528       -0.15077        3.34008
H         10.71714        2.92328        3.35272
H          8.15514        3.48813        2.52911
H          2.98372       -6.95942        7.95719
H          5.59381       -8.03534        9.21093
H          1.60840       -8.35027        9.22426
H          2.63741      -12.02026       12.54483
H          5.28730      -12.26367       11.01062
H          3.70733      -13.20862       14.44313
H          6.09239      -14.84695       11.16488
H          6.59493       -8.31156        7.37366
H          8.16903       -4.10506        4.88520
H          2.63156       -3.25640        5.54563
H          4.00156        1.04045        3.18344
