67

C          4.08077       -4.24258       -0.51488
S          2.99224       -5.57803       -0.39264
C          1.80516       -4.53909        0.37383
C          2.13849       -3.18731        0.59662
S          3.72494       -2.64961        0.05027
C          1.32688       -2.13420        1.22978
O          1.57474       -0.93063        1.09526
C          0.14153       -2.49608        2.09052
C          0.57897       -5.15798        0.73796
C         -0.45433       -5.17873       -0.12024
C         -1.78589       -5.74578        0.15674
C         -2.76820       -5.68687       -0.84386
C         -4.06362       -6.17772       -0.63144
C         -4.30796       -6.71974        0.63349
N         -3.39917       -6.79529        1.63542
C         -2.16492       -6.31360        1.36972
C         -5.09503       -6.13098       -1.69127
S         -6.74651       -6.00989       -1.24309
C         -7.34123       -6.11612       -2.85573
C         -6.26506       -6.23811       -3.71822
C         -4.98937       -6.11879       -3.07398
O         -3.77555       -6.13880       -3.68907
C         -3.66975       -5.23661       -4.79498
C         -2.26398       -5.33326       -5.35180
O         -6.43546       -6.37352       -5.05606
N         -6.03736       -7.65033       -5.55217
O         -5.95089       -7.66506       -6.78051
O         -5.88286       -8.56303       -4.73899
C         -8.80205       -6.09061       -3.11929
C         -9.74798       -6.00462       -2.08511
C        -11.13715       -5.97774       -2.31380
C        -11.51532       -6.02621       -3.65352
N        -10.65726       -6.10900       -4.69553
C         -9.33811       -6.14403       -4.40125
C        -12.11481       -5.90651       -1.19522
S        -13.81194       -5.89420       -1.53958
C        -14.21096       -5.81217        0.16910
C        -13.14022       -5.80733        1.08903
S        -11.52937       -5.85030        0.43686
C        -13.23915       -5.85311        2.56158
O        -14.24634       -6.20771        3.15946
C        -12.02137       -5.44761        3.39723
C        -15.61744       -5.78361        0.40690
C        -16.23123       -4.99046        1.29031
H          5.04446       -4.41133       -0.97170
H         -0.71052       -2.77328        1.46701
H         -0.15111       -1.61754        2.67706
H          0.39547       -3.28607        2.80051
H          0.53435       -5.61898        1.71935
H         -0.33605       -4.73077       -1.10697
H         -2.51553       -5.24152       -1.80208
H         -5.27400       -7.13843        0.90499
H         -1.47986       -6.40320        2.20667
H         -3.88514       -4.20891       -4.47886
H         -4.35104       -5.51077       -5.60149
H         -1.53480       -4.96384       -4.62545
H         -2.17551       -4.75055       -6.27322
H         -2.00894       -6.37616       -5.56838
H         -9.38921       -5.95643       -1.06279
H        -12.55412       -5.99895       -3.96959
H         -8.72878       -6.21397       -5.29300
H        -11.14729       -6.06957        3.18585
H        -12.25078       -5.58605        4.46016
H        -11.78056       -4.39186        3.24071
H        -16.25316       -6.36554       -0.26253
H        -15.70642       -4.33012        1.96829
H        -17.31711       -4.99622        1.34631
