90

C         -4.39613       -0.04078       -8.79810
C         -3.68854       -0.88316       -8.04814
C         -4.27374       -2.15627       -7.82579
C         -5.62616       -2.26544       -8.39463
O         -6.41768       -3.17769       -8.23016
S         -5.92291       -0.75496       -9.29200
C         -3.36208       -2.87736       -7.19117
O         -2.16670       -2.13940       -6.92068
C         -2.38492       -0.85842       -7.39075
O         -1.65253        0.10040       -7.25199
C         -3.33363       -4.26962       -6.78452
C         -3.59203       -5.37341       -7.54542
N         -3.87484       -5.38100       -8.97105
O         -4.08673       -6.48559       -9.49009
O         -3.81398       -4.31719       -9.60304
C         -3.26711       -6.60776       -6.85701
C         -2.70254       -6.30926       -5.68538
C         -2.65274       -4.85141       -5.56836
C         -2.03406       -4.20958       -4.55096
C         -2.29625       -2.84449       -4.10271
C         -1.46737       -2.58038       -3.08024
C         -0.62979       -3.74043       -2.85000
N          0.43532       -3.76615       -1.85739
O          1.13313       -4.77583       -1.73331
O          0.57462       -2.73736       -1.17828
C         -0.94369       -4.75206       -3.69042
C         -0.29601       -6.04162       -3.73694
C          0.33386       -6.61289       -4.78644
C          0.92019       -7.92328       -4.69525
S          0.93203       -8.74268       -3.18374
C          1.66998      -10.17984       -3.75007
C          2.03059       -9.99208       -5.07269
C          1.53850       -8.73736       -5.63304
C          1.69001       -8.39240       -6.98759
C          2.39552       -9.36669       -7.74116
C          2.60328       -9.15615       -9.22073
C          2.91342      -10.57367       -7.16267
C          2.74550      -10.94380       -5.81191
C          1.79805      -11.31324       -2.87565
C          1.38445      -11.29149       -1.59218
C          1.43104      -12.40791       -0.63104
C          2.50405      -13.31132       -0.73982
C          2.57882      -14.33382        0.17514
C          1.66815      -14.46847        1.19981
C          2.04784      -15.64862        1.96914
O          1.45301      -16.04126        2.95387
N          3.15130      -16.17353        1.35410
C          3.53542      -15.42868        0.27569
O          4.46129      -15.59433       -0.49401
C          3.83654      -17.36757        1.79700
C          4.89556      -17.05407        2.83947
C          0.61500      -13.59228        1.36501
C          0.46144      -12.55280        0.42659
C         -0.69710      -11.63029        0.57034
C         -1.90570      -11.97460        1.05221
C         -3.07444      -11.12077        1.12576
C         -4.26087      -11.45043        1.65102
C         -5.26650      -10.45693        1.53195
C         -4.83449       -9.24142        0.84908
O         -5.50257       -8.25894        0.59324
S         -3.12742       -9.48772        0.43470
C         -6.35174      -10.96531        2.08691
O         -6.19114      -12.26338        2.60067
C         -4.86917      -12.60448        2.33193
O         -4.32552      -13.65640        2.60923
H         -4.08450        0.95403       -9.09214
H         -3.45956       -7.60165       -7.23414
H         -2.41069       -7.03419       -4.93979
H         -3.08887       -2.19586       -4.43851
H         -1.44230       -1.68168       -2.48126
H         -0.35566       -6.54551       -2.77340
H          0.39158       -6.09002       -5.73569
H          1.30612       -7.48678       -7.43840
H          2.22534       -8.18195       -9.54616
H          2.07187       -9.93067       -9.78420
H          3.66959       -9.20270       -9.46447
H          3.46674      -11.25995       -7.80736
H          3.14991      -11.86907       -5.42316
H          2.20806      -12.22279       -3.30278
H          0.98023      -10.38124       -1.16530
H          3.26750      -13.22603       -1.50755
H          4.30449      -17.84550        0.92948
H          3.09700      -18.05648        2.21777
H          5.65275      -16.37135        2.43967
H          5.39531      -17.97386        3.15716
H          4.45232      -16.58117        3.72202
H         -0.06367      -13.73237        2.20074
H         -0.53448      -10.61432        0.22648
H         -2.06885      -12.99385        1.40352
H         -7.33638      -10.54387        2.19856
