98

C         -5.39930        0.63828       -7.35270
C         -4.33352       -0.06929       -6.97399
C         -4.45272       -1.47866       -7.09966
C         -5.78492       -1.89914       -7.54923
O         -6.21544       -3.03533       -7.61621
S         -6.69947       -0.40786       -7.90026
C         -3.24799       -1.96500       -6.80506
O         -2.30761       -0.96599       -6.45563
C         -2.99779        0.23469       -6.47098
O         -2.58670        1.31498       -6.09625
C         -2.74245       -3.33038       -6.86326
C         -2.81083       -4.18274       -7.93080
N         -3.31418       -3.87793       -9.26547
O         -3.13681       -4.74331      -10.13281
O         -3.83156       -2.77846       -9.48295
C         -2.14103       -5.43591       -7.67586
C         -1.56719       -5.38653       -6.47091
C         -1.83036       -4.07422       -5.87456
C         -1.28234       -3.68410       -4.69199
C         -1.53450       -2.42743       -3.98293
C         -0.70506       -2.35268       -2.92903
C          0.08628       -3.55452       -2.88173
N          1.13617       -3.77817       -1.91089
O          0.96711       -3.28072       -0.79043
O          2.14168       -4.41817       -2.25205
C         -0.23802       -4.40950       -3.87323
C          0.39630       -5.68766       -4.10975
C          0.30617       -6.78157       -3.33403
C          0.92788       -8.05269       -3.63469
N          0.99787       -9.11278       -2.71707
C          0.48705       -9.15635       -1.36290
C         -0.92533       -9.72099       -1.31518
C          1.56594      -10.26673       -3.29518
O          1.75489      -11.35440       -2.79186
C          1.84435       -9.84991       -4.67632
C          1.44212       -8.47240       -4.79943
C          1.70393       -8.07457       -6.19568
O          1.49987       -6.99773       -6.72055
N          2.20246       -9.25258       -6.77756
C          2.55700       -9.27244       -8.18293
C          1.32618       -9.19496       -9.07732
C          2.27654      -10.29643       -5.85246
C          2.68419      -11.63221       -6.20640
C          3.33885      -12.47426       -5.38975
C          3.76316      -13.82248       -5.72107
C          4.71110      -14.18964       -6.62258
N          5.44533      -13.28613       -7.48146
O          4.85507      -12.32569       -7.98949
O          6.63002      -13.57509       -7.70275
C          5.06442      -15.58656       -6.50171
C          4.35879      -16.12640       -5.49872
C          3.49836      -15.08235       -4.93452
C          2.62340      -15.26354       -3.91814
C          1.56428      -14.32051       -3.55811
C          0.88345      -14.82137       -2.51712
C          1.46270      -16.09843       -2.17680
N          0.99401      -16.90455       -1.07819
O          0.58969      -16.30066       -0.07463
O          0.97581      -18.13652       -1.21552
C          2.49828      -16.42367       -2.98240
C          3.32819      -17.60253       -2.84892
C          4.63607      -17.59369       -2.53818
C          5.46887      -18.77435       -2.46418
C          6.64274      -18.89166       -1.83455
C          7.26616      -20.15873       -1.96615
C          6.53306      -21.11161       -2.79313
O          6.85745      -22.24765       -3.07811
S          5.06884      -20.27086       -3.33181
C          8.38372      -20.08975       -1.26681
O          8.60692      -18.85069       -0.64280
C          7.51692      -18.06186       -0.99382
O          7.32738      -16.90376       -0.66975
H         -5.47323        1.71660       -7.34949
H         -2.10198       -6.27130       -8.36367
H         -1.00876       -6.20954       -6.06244
H         -2.26876       -1.67721       -4.21639
H         -0.63438       -1.54563       -2.21410
H          0.99778       -5.68030       -5.01139
H         -0.27750       -6.72664       -2.41911
H          0.53653       -8.16511       -0.90387
H          1.13964       -9.81338       -0.77476
H         -1.61424       -9.11429       -1.91088
H         -1.29113       -9.75020       -0.28452
H         -0.95503      -10.74223       -1.71222
H          3.15074      -10.15802       -8.42492
H          3.18705       -8.39644       -8.37749
H          0.65981      -10.04511       -8.90238
H          1.61843       -9.18948      -10.13136
H          0.75086       -8.28174       -8.88874
H          2.43463      -11.95329       -7.21544
H          3.57000      -12.17795       -4.36666
H          5.77953      -16.09386       -7.13198
H          4.39000      -17.16685       -5.22452
H          1.30960      -13.40526       -4.06278
H          0.03306      -14.37323       -2.02687
H          2.80173      -18.54484       -2.99922
H          5.13334      -16.64299       -2.33683
H          9.14625      -20.83375       -1.10392
