113

C          5.08196       -5.38387       -0.66548
C          6.05637       -4.53618       -0.16324
C          6.16443       -3.08076       -0.22033
O          5.33543       -2.37927       -0.76972
N          7.33529       -2.74129        0.42635
C          7.98733       -3.85966        0.89396
O          9.03095       -3.99894        1.50369
C          7.17678       -5.00726        0.51839
C          7.42037       -6.34775        0.75509
C          6.44642       -7.19306        0.25200
C          5.31985       -6.72658       -0.43162
C          4.53126       -7.90222       -0.80232
O          3.47995       -7.87313       -1.40765
N          5.20719       -8.98830       -0.33694
C          6.35918       -8.64492        0.30498
O          7.17711       -9.37891        0.83044
C          7.75666       -1.43580        0.55394
C          8.88701       -1.04888        1.16015
C          9.28638        0.30885        1.23961
S         10.98162        0.64461        1.33215
C         10.77278        2.36316        1.36271
C          9.42887        2.64595        1.32820
C          8.59932        1.49457        1.29038
C          7.20281        1.87811        1.34222
O          6.23790        1.13192        1.38451
C          7.14157        3.40396        1.37719
C          8.60917        3.84244        1.37470
O          8.99609        4.99952        1.41857
C         11.94863        3.15265        1.45075
C         12.01958        4.39494        0.95958
C         13.20470        5.19837        1.01057
N         13.85074        5.63482        2.17178
C         13.32099        5.46390        3.51766
C         14.37111        5.39209        4.61489
C         14.91950        6.50994        1.84877
O         15.65452        7.16281        2.56139
C         14.92519        6.50341        0.37317
C         13.84029        5.68014       -0.05480
C         13.80479        5.66631       -1.51558
O         13.02660        5.03235       -2.19816
N         14.86755        6.53328       -1.85990
C         15.20490        6.83119       -3.24262
C         14.01516        6.99826       -4.18136
C         15.55303        6.97449       -0.70775
C         16.70755        7.83941       -0.66345
C         17.72055        7.82021       -1.53971
C         18.81360        8.72083       -1.47544
S         20.27673        8.24043       -0.77155
C         18.93806       10.03462       -1.85814
C         17.81914       10.96091       -2.09301
O         16.63321       10.65913       -2.09212
C         18.30619       12.32457       -2.20184
C         17.62253       13.49923       -1.99846
N         18.53084       14.52667       -2.02971
C         18.26062       15.91668       -1.68262
C         16.81287       16.21961       -1.30872
C         19.77016       14.02945       -2.38599
C         19.65408       12.65760       -2.51430
C         20.63393       11.62444       -2.84561
O         21.44397       11.70286       -3.76198
C         20.35572       10.37899       -2.10485
C         21.25103        9.42441       -1.59017
C         22.75871        9.27080       -1.52878
C         23.44351        8.11074       -1.05632
C         23.04907        6.73594       -0.62583
O         22.06662        6.12731       -1.01210
N         24.09186        6.19281        0.09619
C         25.23323        6.90364       -0.13324
O         26.39107        6.71155        0.18889
C         24.84395        8.07268       -0.91077
C         25.70164        9.02284       -1.41086
C         25.06209       10.09188       -1.97589
C         23.66642       10.27676       -1.92327
C         23.55985       11.72033       -2.19388
O         22.80741       12.47128       -1.60031
N         24.64624       12.08449       -2.92359
C         25.66802       11.25695       -2.61445
O         26.85965       11.44347       -2.74235
C         23.97911        5.00894        0.79588
C         24.94483        4.42541        1.51465
H          4.21008       -5.02243       -1.19743
H          8.29509       -6.70162        1.28163
H          4.89377       -9.93833       -0.44994
H          7.08421       -0.71373        0.09621
H          9.57264       -1.78067        1.57861
H          6.66031        3.73045        2.30155
H          6.63317        3.77529        0.48512
H         12.83350        2.70878        1.90517
H         11.19106        4.83683        0.41068
H         12.74747        4.53403        3.56562
H         12.63010        6.29124        3.71081
H         15.11535        4.61888        4.39986
H         13.89498        5.15536        5.57191
H         14.88957        6.34612        4.73988
H         15.84964        6.02301       -3.60505
H         15.76256        7.77047       -3.28527
H         13.39365        6.10182       -4.23781
H         14.36625        7.20019       -5.19814
H         13.38313        7.83246       -3.86148
H         16.75566        8.51356        0.19236
H         17.74235        7.10374       -2.35558
H         16.57727       13.65445       -1.76613
H         18.55882       16.52396       -2.54363
H         18.91418       16.16295       -0.83742
H         16.13889       16.00656       -2.14598
H         16.69225       17.27216       -1.03772
H         16.48908       15.61608       -0.45269
H         20.63505       14.67855       -2.46329
H         26.77974        8.94748       -1.33515
H         24.83467       13.04862       -3.15057
H         22.99340        4.54524        0.76113
H         25.94217        4.84171        1.61423
H         24.75479        3.49626        2.04242
