127

C         -5.40827       -1.03408        0.78390
C         -5.79715       -2.23131        0.22898
C         -7.11349       -2.15869       -0.39378
C         -7.77048       -0.98409        0.03613
S         -6.62048        0.12341        0.70576
C         -9.16578       -0.78576       -0.12895
C         -9.96106        0.44507        0.31964
C         -9.31081        1.66562        0.95111
C         -9.91965       -1.84603       -0.70705
C         -9.24893       -2.91833       -1.28488
C         -7.83155       -3.02799       -1.27492
C         -7.21503       -4.08025       -2.20332
C         -5.81930       -3.86104       -2.77840
S        -10.38030       -4.04411       -1.98314
C        -11.72670       -3.15018       -1.47763
C        -11.35116       -1.99359       -0.84511
C         -4.86896       -3.31608        0.31370
C         -5.10345       -4.63543        0.23990
C         -4.01727       -5.56619        0.15924
S         -4.28222       -7.19253        0.65374
C         -2.59089       -7.59535        0.65616
C         -1.86872       -6.54534        0.12336
C         -2.71599       -5.45382       -0.30746
C         -2.23696       -4.32894       -0.99937
C         -0.83423       -4.29715       -1.13541
C         -0.27852       -3.13665       -1.78106
N          0.12598       -2.18033       -2.29815
C          0.01262       -5.33558       -0.62727
C          1.43313       -5.19871       -0.72537
N          2.59106       -5.10624       -0.77430
C         -0.47253       -6.51472        0.00505
C         -2.19076       -8.87208        1.22400
C         -1.43688       -9.94122        0.74969
C         -1.34652      -11.07238        1.72817
C         -1.98229      -10.70636        2.92463
S         -2.66048       -9.13811        2.83654
C         -2.04350      -11.52903        4.07557
C         -2.78916      -11.08984        5.33663
C         -1.85669      -10.61405        6.44446
C         -1.37259      -12.76693        4.06453
C         -0.72315      -13.16154        2.89903
C         -0.73993      -12.38838        1.68617
C         -0.04413      -13.01581        0.46882
C         -0.74763      -13.02327       -0.88229
S          0.09293      -14.68441        3.18069
C         -0.46300      -14.81721        4.77290
C         -1.24669      -13.74893        5.11531
C         -0.71025       -9.91721       -0.49660
C         -1.03045       -9.36235       -1.67564
C         -0.12022       -9.29217       -2.79865
C          1.24392       -9.53900       -2.95236
C          1.72891       -9.34601       -4.31277
C          0.84688       -8.49380       -4.97884
S         -0.72703       -8.68070       -4.28575
C          1.25978       -7.68837       -6.07097
C          0.31736       -6.70929       -6.76981
C         -0.45910       -5.74372       -5.88110
C          2.60737       -7.81373       -6.52460
C          3.39650       -8.84636       -6.01471
C          2.94601       -9.68764       -4.97018
C          3.74698      -10.92809       -4.58961
C          2.92544      -12.21270       -4.71164
S          4.93644       -8.90435       -6.81697
C          4.62605       -7.50271       -7.71263
C          3.35243       -7.04109       -7.49579
C          2.10206       -9.65854       -1.80676
C          2.78735      -10.72733       -1.38379
C          3.50298      -10.67091       -0.09576
N          4.69219      -11.16677        0.11920
C          4.89434      -10.91860        1.44014
C          3.73486      -10.28014        2.00450
C          3.94359      -10.05972        3.45245
O          3.18576       -9.57941        4.26438
C          5.31512      -10.58352        3.64534
C          5.81559      -11.07486        2.38443
N          7.07394      -11.56098        2.54444
C          7.29839      -11.36658        3.81507
C          6.21284      -10.74976        4.60716
C          2.81259      -10.07087        1.07978
H         -4.46482       -0.78474        1.25194
H        -10.71806        0.09289        1.03244
H        -10.50446        0.80502       -0.56487
H         -8.81850        1.41709        1.89587
H        -10.07722        2.41314        1.18366
H         -8.59738        2.14216        0.27211
H         -7.85070       -4.11184       -3.09859
H         -7.29752       -5.07166       -1.74435
H         -5.08129       -4.47788       -2.26699
H         -5.49579       -2.81840       -2.75512
H         -5.78409       -4.20834       -3.81737
H        -12.72952       -3.50018       -1.67935
H        -12.07461       -1.28015       -0.47062
H         -3.84425       -2.99584        0.49119
H         -6.12075       -5.01502        0.20903
H         -2.85846       -3.53054       -1.39099
H          0.19228       -7.28450        0.37568
H         -3.39588      -11.92859        5.69904
H         -3.51180      -10.29652        5.12218
H         -1.17767      -11.40588        6.77505
H         -2.44126      -10.29972        7.31550
H         -1.24571       -9.76675        6.11815
H          0.10445      -14.08255        0.66504
H          0.96574      -12.60143        0.38592
H         -1.83434      -12.95637       -0.79928
H         -0.49981      -13.94676       -1.42073
H         -0.37905      -12.22730       -1.52989
H         -0.19497      -15.66392        5.38986
H         -1.69483      -13.65414        6.09679
H          0.23787      -10.42439       -0.41373
H         -2.00892       -8.89867       -1.80045
H         -0.37432       -7.28183       -7.39835
H          0.89216       -6.08113       -7.45775
H         -1.32019       -6.22510       -5.41201
H         -0.86477       -4.92683       -6.48817
H          0.16940       -5.31023       -5.09749
H          4.16978      -10.80941       -3.59180
H          4.60974      -11.06387       -5.24880
H          2.02964      -12.20138       -4.08377
H          3.52975      -13.07633       -4.41393
H          2.59881      -12.37376       -5.74540
H          5.37998       -7.09136       -8.36985
H          2.97570       -6.16397       -8.00529
H          2.13716       -8.75030       -1.20376
H          2.85593      -11.65871       -1.92784
H          8.23864      -11.63382        4.31949
H          6.18535      -10.52135        5.65314
H          1.83818       -9.63757        1.16746
