141

C         -2.29171       -7.40856        1.74319
C         -1.71608       -6.13724        1.69863
C         -0.33883       -6.04299        1.80205
C          0.46085       -7.20018        1.94665
C         -0.10947       -8.46010        1.99098
C         -1.49714       -8.55906        1.88845
C          1.84587       -6.80899        2.02598
C          1.92072       -5.40417        1.93457
C          0.53504       -4.79079        1.78397
C          0.22991       -3.86190        2.96492
C          0.42699       -4.03775        0.45179
C          3.13023       -4.74693        1.98111
C          4.28851       -5.51413        2.08961
C          4.21706       -6.91682        2.20394
C          2.98928       -7.57400        2.16905
C          5.59630       -4.88187        2.14933
C          5.89935       -3.73437        1.52375
C          7.21649       -3.10560        1.59984
C          8.25070       -3.68039        2.34773
C          9.47560       -3.05696        2.37920
C          9.68745       -1.85901        1.67825
C          8.67855       -1.26822        0.93946
C          7.43707       -1.89996        0.90182
C         11.04949       -1.44970        1.88178
C         11.69381       -2.39377        2.71559
C         10.73296       -3.50963        3.10853
C         11.21192       -4.87381        2.59173
C         10.50810       -3.56069        4.62566
C         13.01852       -2.23890        3.06209
C         13.68910       -1.11872        2.56225
C         13.05010       -0.18430        1.72858
C         11.71478       -0.34618        1.38361
C         15.08365       -0.91626        2.90092
C         16.04499       -1.45820        2.14462
C         17.42140       -1.32406        2.47132
S         18.52590       -1.21421        1.16522
C         19.91834       -1.02934        2.17195
C         19.53840       -1.10451        3.50286
C         18.11134       -1.29281        3.66770
C         17.48975       -1.43739        4.91887
C         18.37435       -1.34205        6.01338
C         17.78746       -1.43577        7.32467
N         17.27423       -1.50143        8.36033
C         19.78241       -1.14658        5.85904
C         20.62962       -1.08408        7.02227
N         21.32600       -1.04566        7.94132
C         20.41764       -1.01438        4.59693
C         21.22722       -0.86756        1.49987
C         22.39479       -1.40538        2.05979
C         23.60543       -1.21753        1.41306
C         23.67411       -0.53534        0.18232
C         22.53962       -0.02775       -0.41071
C         21.32511       -0.18780        0.25684
C         25.03914       -0.51224       -0.27009
C         25.83700       -1.18090        0.67779
C         24.99419       -1.68586        1.84292
C         25.06259       -3.21314        1.95324
C         25.42633       -1.02548        3.15944
C         27.19481       -1.31751        0.48785
C         27.76857       -0.75507       -0.65739
C         26.96370       -0.09915       -1.61053
C         25.58893        0.02879       -1.41832
C         29.20109       -0.87598       -0.90775
C         30.10623       -0.93326        0.08031
C         31.54276       -1.04497       -0.16365
C         32.32984       -1.71964        0.77631
C         33.69591       -1.78961        0.55182
C         34.27276       -1.19587       -0.58981
C         33.50122       -0.51959       -1.51411
C         32.13131       -0.43733       -1.29031
C         35.69341       -1.42101       -0.56807
C         36.03294       -2.15451        0.58717
C         34.77482       -2.45224        1.40932
C         34.52327       -3.95777        1.53061
C         34.84184       -1.79587        2.79469
C         37.35079       -2.50040        0.84608
C         38.34567       -2.09389       -0.05915
C         37.98381       -1.37808       -1.22109
C         36.65837       -1.03066       -1.47766
C         39.74208       -2.46785        0.20332
C         40.79957       -1.74694       -0.19154
H         -3.37118       -7.51164        1.66478
H         -2.33263       -5.25259        1.58639
H          0.50028       -9.35055        2.10225
H         -1.96802       -9.53764        1.92125
H          0.33739       -4.38000        3.92577
H         -0.79166       -3.47109        2.91128
H          0.91143       -3.00239        2.98334
H          0.67626       -4.68254       -0.40004
H          1.11248       -3.18173        0.41981
H         -0.58621       -3.65434        0.29124
H          3.16424       -3.66360        1.93735
H          5.12716       -7.50344        2.31239
H          2.94718       -8.65446        2.24855
H          6.31588       -5.43105        2.74321
H          5.16274       -3.21772        0.91394
H          8.13293       -4.60164        2.90261
H          8.84113       -0.34283        0.39800
H          6.63916       -1.44462        0.31815
H         11.36916       -4.86477        1.50663
H         10.48290       -5.66406        2.80882
H         12.15928       -5.16526        3.05915
H         10.15371       -2.59959        5.01777
H         11.43352       -3.81150        5.15684
H          9.76096       -4.31727        4.89556
H         13.51569       -2.96478        3.69814
H         13.59876        0.67305        1.34663
H         11.21980        0.37316        0.74246
H         15.25991       -0.31478        3.78410
H         15.78140       -1.99056        1.23093
H         16.43162       -1.61297        5.06964
H         21.48554       -0.85275        4.52974
H         22.38102       -1.98550        2.97405
H         22.57919        0.48062       -1.36805
H         20.44224        0.22542       -0.22610
H         24.76668       -3.70008        1.01628
H         24.39906       -3.58570        2.74181
H         26.07806       -3.55154        2.19101
H         25.39258        0.06912        3.09658
H         26.45269       -1.30377        3.42815
H         24.77634       -1.32641        3.98906
H         27.78892       -1.85680        1.21751
H         27.40873        0.32525       -2.50824
H         24.97717        0.53956       -2.15366
H         29.49434       -0.90977       -1.95313
H         29.81449       -0.89897        1.12599
H         31.89243       -2.18090        1.65381
H         33.93632       -0.05243       -2.39031
H         31.52577        0.11627       -2.00043
H         34.44982       -4.43938        0.54673
H         33.58568       -4.16571        2.06242
H         35.32923       -4.45665        2.08044
H         35.00076       -0.71397        2.72267
H         35.65999       -2.21123        3.39305
H         33.91133       -1.95216        3.35390
H         37.60382       -3.06356        1.73903
H         38.73764       -1.08715       -1.94816
H         36.40143       -0.47241       -2.37057
H         39.89961       -3.38316        0.76831
H         40.69945       -0.81189       -0.73348
H         41.80750       -2.07683        0.03587
