67

C          1.59456        1.53113       -2.33869
C          2.44754        0.43388       -2.37854
F          3.70420        0.59931       -2.80913
C          2.01740       -0.82211       -1.97772
C          0.71053       -0.98601       -1.52292
C         -0.15575        0.11251       -1.47705
C          0.27189        1.38397       -1.89368
C         -0.65215        2.52168       -1.83890
S         -0.54718        3.79587       -2.98599
C         -1.83551        4.57970       -2.15139
N         -2.29305        3.88135       -1.13028
N         -1.63222        2.67673       -0.97092
C         -2.26188        5.84458       -2.62473
C         -2.91044        6.71743       -1.83910
C         -3.39982        7.98467       -2.31415
N         -3.49457        9.13107       -1.52119
C         -3.05374        9.26479       -0.14535
C         -4.16368        8.96500        0.84817
C         -4.05811       10.21435       -2.23265
O         -4.28510       11.34970       -1.87432
C         -4.30108        9.63503       -3.56526
C         -3.86883        8.26644       -3.53668
C         -4.09191        7.69063       -4.87574
O         -3.84824        6.56254       -5.24938
N         -4.60863        8.78097       -5.59853
C         -4.93796        8.66810       -7.00628
C         -6.35753        8.18106       -7.24134
C         -4.75542        9.90838       -4.79156
C         -5.27281       11.14996       -5.28309
C         -6.31725       11.78749       -4.73390
C         -6.84540       13.04625       -5.25729
C         -8.18360       13.36364       -5.16151
N         -8.72205       14.51331       -5.61737
C         -7.88717       15.40055       -6.18603
N         -6.55922       15.19918       -6.31400
C         -6.07398       14.03400       -5.83653
C         -8.43430       16.66743       -6.69909
C         -9.80126       16.97938       -6.63426
F        -10.68831       16.12549       -6.10087
C        -10.30714       18.18628       -7.12189
C         -9.45320       19.12327       -7.69376
C         -8.09203       18.85040       -7.77755
C         -7.59255       17.63848       -7.28656
H          1.99143        2.49270       -2.64985
H          2.70398       -1.66176       -2.01804
H          0.36456       -1.96533       -1.20329
H         -1.17499       -0.03145       -1.11873
H         -2.04496        6.08131       -3.66206
H         -3.09616        6.47282       -0.79476
H         -2.71246       10.29546        0.00797
H         -2.19072        8.61344        0.03150
H         -5.00977        9.64606        0.71054
H         -3.79601        9.08052        1.87286
H         -4.53471        7.94207        0.73195
H         -4.24376        7.94955       -7.45891
H         -4.77095        9.62698       -7.50598
H         -6.51794        7.19731       -6.78821
H         -6.55165        8.09531       -8.31555
H         -7.09068        8.87252       -6.81512
H         -4.77818       11.54329       -6.16807
H         -6.83783       11.36831       -3.87380
H         -8.90113       12.68331       -4.71053
H         -4.99739       13.92826       -5.93736
H        -11.37297       18.37976       -7.04745
H         -9.84837       20.06233       -8.07236
H         -7.41571       19.57546       -8.22124
H         -6.52146       17.45273       -7.36513
