102

C        -12.51663        6.21837       -1.04336
N        -11.75985        6.82588       -0.04931
C        -12.27449        7.22057        1.24482
C        -11.62088        6.45509        2.38493
C        -10.42826        7.04675       -0.46209
O         -9.50501        7.56174        0.12790
C        -10.41271        6.47795       -1.82588
C        -11.74077        5.99795       -2.10282
C        -11.75214        5.44586       -3.46445
O        -12.70237        4.96030       -4.04199
N        -10.41673        5.63473       -3.88378
C         -9.96211        5.18338       -5.18423
C         -8.95233        4.04760       -5.11159
C         -9.64160        6.25490       -2.89229
C         -8.25096        6.59218       -3.07779
C         -7.26208        6.18408       -2.26456
N         -5.90149        6.41631       -2.38775
C         -4.89065        5.97388       -1.57499
C         -5.08423        5.22160       -0.43190
S         -3.63164        4.84569        0.38244
C         -2.70748        5.65527       -0.79982
C         -3.47963        6.21482       -1.80119
N         -2.95829        6.95175       -2.84599
C         -1.59491        7.19232       -2.99409
N         -0.66286        6.34197       -3.61210
C         -0.99007        5.15212       -4.36649
C         -1.18907        5.46160       -5.84408
C          0.65183        6.85380       -3.58223
O          1.67822        6.41294       -4.05313
C          0.48162        8.11556       -2.85470
C         -0.91532        8.26089       -2.55210
C         -1.08962        9.53166       -1.83647
O         -2.13796       10.01801       -1.46547
N          0.22939       10.02995       -1.75596
C          0.50398       11.36479       -1.26542
C          0.47016       12.39706       -2.38164
C          1.14360        9.16974       -2.37505
C          2.55598        9.41127       -2.48284
C          3.36799        9.58745       -1.42914
C          4.78323        9.85714       -1.52514
C          5.42477       10.90606       -0.93471
C          4.80511       11.99444       -0.12233
C          6.89220       10.84504       -1.19253
C          7.08957        9.76834       -1.98598
C          5.82643        9.08438       -2.17983
C          5.77525        7.91835       -2.83778
C          7.01121        7.36906       -3.35633
C          8.15553        8.05361       -3.20099
O          8.23809        9.27709       -2.55701
C          7.92283       11.80239       -0.81433
C          9.21180       11.55525       -0.51115
C         10.20901       12.70213       -0.63486
O         10.01223       13.89375       -0.50341
C         11.40926       12.00427       -1.02945
C         12.65230       12.36828       -1.44922
S         13.58607       11.01170       -1.90666
C         12.32367        9.90266       -1.48542
C         11.25357       10.59225       -0.98645
C          9.96958       10.27905       -0.42363
C          9.62492        9.16506        0.25957
C          8.46346        9.12588        1.08377
N          7.55276        9.12005        1.80137
C         10.47037        8.01997        0.29657
N         11.16810        7.09526        0.30679
Cl        13.32226       13.93842       -1.58084
H        -13.56550        5.99219       -0.91764
H        -13.35860        7.05943        1.26677
H        -12.08898        8.29330        1.37068
H        -11.71236        5.37437        2.23854
H        -12.09007        6.71685        3.33829
H        -10.55469        6.69293        2.46065
H         -9.54956        6.03951       -5.72739
H        -10.83100        4.83183       -5.75342
H         -7.99106        4.38951       -4.71805
H         -8.76859        3.64126       -6.11107
H         -9.30909        3.23701       -4.46821
H         -8.01901        7.18409       -3.95765
H         -7.52470        5.57495       -1.40248
H         -5.65643        6.96899       -3.20429
H         -6.01133        4.87019       -0.00514
H         -1.63545        5.70132       -0.67519
H         -3.47705        7.82190       -2.98079
H         -1.88018        4.67348       -3.94693
H         -0.15660        4.44625       -4.26759
H         -1.99816        6.18419       -5.99044
H         -1.43569        4.55016       -6.39712
H         -0.28041        5.88816       -6.28390
H          1.46692       11.38621       -0.75151
H         -0.25744       11.62344       -0.52079
H          1.18205       12.15087       -3.17622
H          0.72306       13.38756       -1.99161
H         -0.52632       12.45077       -2.83244
H          2.96027        9.42562       -3.49494
H          2.96959        9.54601       -0.41668
H          3.71165       11.96251       -0.16378
H          5.10265       12.98188       -0.48778
H          5.09568       11.90090        0.92816
H          4.85276        7.36447       -2.98029
H          6.98657        6.40970       -3.86150
H          9.12335        7.72500       -3.55319
H          7.60575       12.84338       -0.90676
H         12.47038        8.84021       -1.63365
