81

C          1.99442       -0.44617        1.82508
N          2.71620        0.73266        1.67397
C          4.16134        0.81478        1.64943
C          4.79681        0.31154        2.93651
C          1.87191        1.85515        1.55023
O          2.14389        3.02914        1.39380
C          0.53164        1.25114        1.66291
C          0.69259       -0.16715        1.83604
C         -0.64606       -0.76736        1.96568
O         -0.90672       -1.94235        2.10817
N         -1.49351        0.35710        1.88272
C         -2.93841        0.23559        1.93610
C         -3.54998       -0.00086        0.56533
C         -0.77178        1.53236        1.67743
C         -1.37342        2.82597        1.54794
C         -1.19270        3.62157        0.47845
C         -1.75730        4.97131        0.36009
C         -2.96814        5.31221        0.96673
C         -3.45858        6.62043        0.85978
N         -4.71721        6.89538        1.52365
O         -5.69859        6.23783        1.14705
O         -4.70873        7.71029        2.45277
C         -2.78422        7.61471        0.13854
C         -1.59294        7.25282       -0.50320
C         -1.09057        5.94490       -0.39757
C         -3.26281        8.99546        0.01418
C         -2.90662        9.94258        0.89819
C         -3.44208       11.26208        0.82960
S         -3.60500       12.18553        2.26500
C         -4.37066       13.51263        1.46835
C         -4.43112       13.26592        0.10158
C         -3.89876       11.98781       -0.25319
O         -5.02105       14.14760       -0.74886
C         -4.48075       14.16861       -2.06241
C         -4.82583       14.66629        2.23824
S         -5.59840       16.01409        1.50907
C         -5.80484       16.83972        2.98418
C         -6.46719       18.12389        2.94591
O         -6.70691       18.82825        3.92500
C         -5.28410       16.13546        4.05310
C         -4.72682       14.88035        3.60508
C         -5.29211       16.61128        5.42943
N         -4.75119       15.86695        6.33945
N         -4.78295       16.41671        7.59052
C         -3.75090       15.99171        8.46510
C         -2.48438       15.63526        7.97919
C         -1.45427       15.27556        8.84950
C         -1.67162       15.28983       10.22433
C         -2.91194       15.67978       10.72641
C         -3.94043       16.04402        9.85192
H          2.47222       -1.41121        1.92925
H          4.45661        1.85746        1.48640
H          4.51960        0.23276        0.79335
H          4.40924        0.85483        3.80466
H          5.88267        0.44210        2.90279
H          4.59126       -0.75307        3.08978
H         -3.36755        1.13145        2.39710
H         -3.18643       -0.61191        2.58604
H         -3.34387        0.83605       -0.10940
H         -4.63597       -0.11168        0.64936
H         -3.14954       -0.90982        0.10388
H         -1.97079        3.14305        2.39940
H         -0.57231        3.28752       -0.35046
H         -3.53624        4.57355        1.52616
H         -1.03846        7.98459       -1.08889
H         -0.15427        5.70317       -0.90237
H         -3.96131        9.18379       -0.79647
H         -2.24684        9.69804        1.72944
H         -3.87793       11.59171       -1.25915
H         -5.04798       14.90450       -2.64109
H         -4.59189       13.20636       -2.57035
H         -3.43276       14.48583       -2.04716
H         -6.77760       18.47981        1.94718
H         -4.26908       14.17392        4.29028
H         -5.73046       17.59234        5.67186
H         -5.69088       16.37725        8.05673
H         -2.29746       15.63773        6.90820
H         -0.48595       14.98964        8.44891
H         -0.87213       15.00611       10.90290
H         -3.07882       15.70414       11.79982
H         -4.89495       16.35711       10.26528
