92

C         -0.91079       -1.65518       -1.52049
N         -0.74736       -0.75386       -2.56514
C         -0.19331       -1.09459       -3.85851
C          1.31968       -0.95675       -3.89259
C         -1.18355        0.54165       -2.21817
O         -1.19727        1.56340       -2.87197
C         -1.65090        0.35494       -0.82915
C         -1.45786       -1.02784       -0.47925
C         -1.94502       -1.22337        0.89614
O         -1.94451       -2.25904        1.53127
N         -2.39889        0.06332        1.24991
C         -2.95805        0.35900        2.55552
C         -1.89868        0.73816        3.57864
C         -2.19442        0.97928        0.21684
C         -2.56935        2.35700        0.31308
C         -1.71077        3.36972        0.12899
C         -2.10444        4.75135        0.18854
C         -1.45415        5.74229       -0.46147
C         -2.14359        7.00692       -0.18498
C         -3.15406        6.68092        0.72316
C         -3.16731        5.36501        0.96415
C         -4.10623        7.67658        1.36536
N         -4.89614        8.50256        1.89812
C         -2.05912        8.22929       -0.70987
C         -2.74149        9.49573       -0.43718
C         -2.44487       10.38349       -1.41151
C         -1.52486        9.71127       -2.31433
C         -1.31186        8.46455       -1.86182
C         -0.36071        7.49085       -2.53830
N          0.42835        6.68309       -3.09949
C         -2.99139       11.70280       -1.44732
S         -3.20972       12.52172       -2.96658
C         -3.88832       13.91792       -2.24781
C         -3.94516       13.79315       -0.88191
C         -3.44227       12.52230       -0.42378
N         -3.40887       12.16153        0.89128
C         -3.93123       13.12613        1.69979
O         -4.00983       12.86275        3.05755
C         -3.33557       11.66429        3.45095
C         -3.56509       11.46403        4.93766
C         -4.39824       14.38588        1.24376
O         -4.88694       15.28389        2.18396
C         -4.77598       16.63830        1.73194
C         -5.38372       17.57235        2.76345
N         -4.42744       14.76437       -0.06188
C         -4.32872       15.06532       -2.97785
C         -4.69980       16.07695       -3.51334
C         -5.14676       17.40585       -4.13066
C         -5.46166       18.47246       -4.59116
C         -5.79119       19.75397       -5.13136
S         -4.81823       20.53454       -6.30549
C         -5.84592       21.93696       -6.39520
C         -6.92563       21.76262       -5.54329
C         -6.88396       20.52375       -4.81638
N         -7.85215       20.17173       -3.92872
C         -8.81567       21.12772       -3.84931
N         -8.93441       22.31815       -4.51093
C         -7.97361       22.67183       -5.40573
C         -5.46056       22.97448       -7.29756
C         -5.71407       24.27033       -7.07542
H         -0.63096       -2.69459       -1.60478
H         -0.63179       -0.42984       -4.61163
H         -0.48650       -2.12064       -4.10774
H          1.62731        0.07226       -3.68000
H          1.70280       -1.23116       -4.88067
H          1.79238       -1.60846       -3.15058
H         -3.48796       -0.53234        2.90987
H         -3.70039        1.15892        2.46664
H         -1.22063       -0.09921        3.77277
H         -2.37355        1.01506        4.52580
H         -1.29683        1.58689        3.23866
H         -3.61688        2.54831        0.53080
H         -0.66778        3.16911       -0.11337
H         -0.58874        5.56363       -1.07505
H         -3.83389        4.83663        1.62786
H         -3.38017        9.73353        0.39279
H         -1.07166       10.16724       -3.18193
H         -2.25977       11.76268        3.26065
H         -3.72571       10.79182        2.91622
H         -3.11896       12.28663        5.50549
H         -3.12658       10.52219        5.28033
H         -4.63608       11.46023        5.16551
H         -5.31016       16.79071        0.78686
H         -3.71624       16.89031        1.60241
H         -6.41191       17.28110        3.00055
H         -5.38714       18.60106        2.38864
H         -4.81317       17.54488        3.69668
H         -9.62530       20.91700       -3.15353
H         -8.11152       23.60615       -5.92911
H         -4.91093       22.70024       -8.19709
H         -6.19953       24.64230       -6.18037
H         -5.41255       25.02072       -7.80001
