92

C         -7.17499       -0.43247       -3.05876
N         -5.80960       -0.19195       -3.07296
C         -4.83609       -1.12876       -3.60711
C         -3.77821       -1.53426       -2.59131
C         -5.49640        1.10876       -2.64595
O         -4.42362        1.68049       -2.56907
C         -6.82636        1.66902       -2.32471
C         -7.80193        0.67365       -2.62614
C         -9.12748        1.22547       -2.34148
O        -10.19354        0.66623       -2.46411
N         -8.83366        2.53890       -1.88775
C         -9.90776        3.38774       -1.40564
C        -10.44293        4.39339       -2.42190
C         -7.44502        2.77805       -1.89152
C         -6.73540        3.98065       -1.51311
C         -7.26960        5.19747       -1.35025
C         -6.55288        6.43288       -1.08597
C         -5.97499        7.19157       -2.08464
N         -5.47667        8.42664       -1.88717
C         -5.55477        8.91887       -0.62535
N         -6.10270        8.24731        0.41703
C         -6.59377        7.02459        0.15766
C         -5.01147       10.27538       -0.35827
N         -4.99430       11.17693       -1.36829
C         -4.48615       12.38449       -1.08164
C         -3.99945       12.72856        0.15004
C         -4.06832       11.75687        1.13017
N         -4.55651       10.52915        0.89191
C         -3.55308       11.95317        2.48658
C         -3.57808       13.12551        3.14357
C         -3.08394       13.27049        4.50962
N         -3.99644       13.17274        5.48448
C         -3.52601       13.28384        6.73803
C         -2.20187       13.49045        7.03322
C         -1.35477       13.60536        5.95240
N         -1.77098       13.50346        4.67358
C          0.08717       13.73706        6.18865
C          0.90322       14.57255        5.52428
C          2.32773       14.48271        5.64150
C          3.23362       15.21286        6.52430
C          3.03488       16.30050        7.42913
O          1.79038       16.95787        7.37775
C          1.86625       18.37765        7.58817
C          0.75495       19.14614        6.89923
C          4.08453       16.68031        8.31177
C          5.35937       16.11527        8.21486
C          5.56812       15.05215        7.31166
C          4.52608       14.65681        6.44092
S          4.62346       13.56026        5.10033
C          2.96235       13.53860        4.86914
O          6.86494       14.51941        7.30017
C          6.95752       13.09918        7.14234
C          8.34139       12.59636        7.51808
C          6.31173       16.81191        9.05076
C          5.74830       17.81172        9.80067
S          4.06385       17.79168        9.65768
H         -7.61064       -1.36410       -3.38477
H         -4.35078       -0.64986       -4.46634
H         -5.35666       -2.02165       -3.96763
H         -3.16492       -0.67957       -2.29563
H         -3.12004       -2.29108       -3.01554
H         -4.24169       -1.94423       -1.68529
H         -9.59276        3.87091       -0.47329
H        -10.74937        2.74273       -1.12927
H         -9.68061        5.07537       -2.80917
H        -11.22285        5.00437       -1.95779
H        -10.86788        3.89011       -3.29234
H         -5.65817        3.87280       -1.41010
H         -8.32374        5.38904       -1.43369
H         -5.93274        6.83924       -3.11208
H         -7.07032        6.53250        1.00126
H         -4.47456       13.09181       -1.90679
H         -3.57502       13.70785        0.33459
H         -3.17251       11.05656        2.96852
H         -4.00828       14.02884        2.72717
H         -4.27017       13.19054        7.52512
H         -1.85294       13.55961        8.05430
H          0.49496       13.05273        6.92728
H          0.50592       15.24151        4.76416
H          2.81736       18.78643        7.22525
H          1.74236       18.57053        8.65757
H          0.73413       18.94697        5.82579
H          0.90922       20.22153        7.05527
H         -0.22044       18.88154        7.31682
H          2.52332       12.84902        4.16001
H          6.85872       12.85682        6.08547
H          6.19562       12.57338        7.73133
H          9.11666       13.32686        7.27146
H          8.55214       11.66479        6.97855
H          8.40348       12.37727        8.58748
H          7.37451       16.60541        9.05129
H          6.23795       18.51203       10.46402
