104

C         -0.86188       -1.58560        7.59456
N         -0.51861       -0.26115        7.36534
C          0.82062        0.28083        7.39583
C          0.99060        1.33100        8.48491
C         -1.63094        0.51321        6.99915
O         -1.66674        1.67860        6.66032
C         -2.74649       -0.45382        7.07870
C         -2.17744       -1.72945        7.43012
C         -3.26087       -2.72038        7.45752
O         -3.15468       -3.90850        7.68315
N         -4.39730       -1.94699        7.12919
C         -5.69945       -2.57167        6.98808
C         -6.48599       -2.61297        8.28752
C         -4.06885       -0.59443        6.93354
C         -5.03643        0.41812        6.58315
C         -4.81040        1.74257        6.54439
C         -5.77678        2.75126        6.17626
C         -6.91238        3.08029        6.84154
N         -7.39267        2.46051        8.05449
O         -7.90961        3.21462        8.89129
O         -7.33341        1.23020        8.16362
C         -7.60639        4.18151        6.22423
C         -6.91436        4.56980        5.14617
C         -5.68761        3.76333        5.06056
C         -4.72480        3.93669        4.12174
C         -3.54007        3.09366        3.92067
C         -2.92669        3.48910        2.79181
C         -3.64680        4.61702        2.25282
N         -3.23597        5.34230        1.07027
O         -4.11146        5.84825        0.35603
O         -2.02302        5.36466        0.82258
C         -4.68112        4.97712        3.04182
C         -5.43657        6.20361        2.89859
C         -5.43634        7.17351        3.82687
C         -6.20238        8.36087        3.64876
C         -6.53539        9.01689        2.47763
C         -7.38118       10.13597        2.72298
C         -7.65624       10.31495        4.04417
S         -6.82422        9.16043        5.04481
C         -8.56109       11.38910        4.28360
C         -8.96734       11.98570        3.10349
S         -8.16139       11.32898        1.72710
C         -9.90138       13.04015        2.89374
C        -10.94215       13.21629        3.72272
C        -11.91240       14.27902        3.58998
C        -12.74433       14.51283        2.54501
N        -12.80051       13.72592        1.33705
O        -13.08125       14.33613        0.29557
O        -12.60493       12.50635        1.41026
C        -13.61456       15.63791        2.78213
C        -13.36043       16.11982        4.00686
C        -12.29822       15.30257        4.61472
C        -11.77847       15.49198        5.85173
C        -10.55740       14.86299        6.36722
C        -10.32468       15.34517        7.59586
C        -11.38124       16.27157        7.92939
N        -11.49257       16.91680        9.21906
O        -11.01174       16.31002       10.18584
O        -12.01617       18.03764        9.27951
C        -12.28350       16.39121        6.93207
C        -13.52016       17.13595        7.00440
C        -14.73868       16.58389        6.88410
C        -15.95390       17.34524        6.89724
C        -16.23153       18.50234        7.50888
C        -17.57675       18.91569        7.24817
C        -18.21100       18.04273        6.45807
C        -17.22061       16.96061        6.22146
O        -17.40040       15.94054        5.56874
C        -19.56400       18.06194        5.98552
C        -20.25117       19.17980        5.71502
H         -0.13202       -2.34079        7.84494
H          1.01108        0.74341        6.42041
H          1.54201       -0.53041        7.53660
H          0.29194        2.16471        8.35499
H          2.00439        1.74141        8.46237
H          0.81000        0.90139        9.47514
H         -5.54227       -3.60363        6.65072
H         -6.27394       -2.07627        6.19971
H         -5.90917       -3.08926        9.08687
H         -7.40984       -3.18526        8.14955
H         -6.75682       -1.60672        8.61958
H         -6.03809        0.06266        6.35733
H         -3.83778        2.15961        6.77636
H         -8.54893        4.58308        6.56300
H         -7.25275        5.32892        4.46396
H         -3.18248        2.29760        4.55112
H         -2.01488        3.08804        2.37337
H         -6.00424        6.30678        1.97463
H         -4.89206        7.04326        4.76112
H         -6.21166        8.71095        1.48994
H         -8.90174       11.67950        5.26882
H         -9.76697       13.68361        2.02666
H        -11.10528       12.55076        4.56871
H        -14.33056       16.02595        2.07416
H        -13.83024       16.99730        4.41502
H         -9.89593       14.19047        5.84979
H         -9.48630       15.11118        8.23867
H        -13.41109       18.20847        7.16162
H        -14.85278       15.51579        6.69828
H        -15.54684       19.07756        8.11929
H        -18.00016       19.82311        7.65456
H        -20.03381       17.09201        5.83058
H        -19.81746       20.16901        5.82815
H        -21.27424       19.12882        5.35551
