106

C        -14.57145        2.62726        0.06562
N        -13.27477        2.34165       -0.33593
C        -12.85921        1.19404       -1.11486
C        -13.85699        0.73370       -2.16602
C        -12.34571        3.24143        0.23301
O        -11.13396        3.24230        0.15253
C        -13.20592        4.18153        0.98822
C        -14.56070        3.71787        0.83079
C        -15.45521        4.62172        1.56400
O        -16.66001        4.52568        1.66424
N        -14.56274        5.57963        2.06991
C        -15.04611        6.72328        2.82376
C        -15.06089        6.45095        4.31783
C        -13.23129        5.29521        1.73641
C        -12.14819        6.15777        2.13559
C        -10.88068        6.09616        1.70986
C         -9.85966        7.09624        1.95139
C         -9.84032        8.36468        1.46082
N        -10.92219        9.01230        0.74450
O        -12.08697        8.81448        1.10777
O        -10.59883        9.79878       -0.15847
C         -8.50017        8.89985        1.44140
C         -7.65667        7.97135        1.90671
C         -8.44469        6.83160        2.38259
C         -7.99770        5.78770        3.12425
C         -8.86706        4.81961        3.80706
C         -8.09005        3.94531        4.46851
C         -6.71068        4.28923        4.22268
N         -5.59205        3.54394        4.75857
O         -4.55478        3.45535        4.08622
O         -5.76205        3.00910        5.86233
C         -6.59580        5.39329        3.45700
C         -5.35517        5.97565        3.02292
C         -4.93436        7.18277        3.41175
C         -3.79928        7.80467        2.83580
S         -3.06099        9.06464        3.73320
C         -1.85541        9.41286        2.53520
C         -2.04681        8.56702        1.46667
C         -3.14806        7.67702        1.63284
C         -3.32273        6.86734        0.43907
O         -4.20702        6.05534        0.21924
C         -2.22093        7.23998       -0.54433
C         -1.43410        8.33573        0.16915
O         -0.46129        8.89900       -0.30477
C         -0.87522       10.45073        2.77954
S         -0.89552       11.38945        4.20229
C          0.57488       12.20063        3.84638
C          1.01469       11.87869        2.55310
C          0.16789       10.86147        1.98176
C          2.21229       12.47602        1.90075
O          2.93538       13.24782        2.54023
C          2.58336       12.14677        0.44474
F          1.72890       11.32350       -0.21793
F          2.66414       13.27121       -0.32433
F          3.80647       11.54657        0.36218
C          1.10796       13.12185        4.81641
C          0.96138       12.97334        6.14852
C          1.43777       13.80741        7.25538
C          1.87063       15.09702        7.20682
N          2.02173       15.92532        6.04414
O          1.35202       16.96739        6.01863
O          2.88810       15.61432        5.21989
C          2.19665       15.64210        8.49129
C          1.94571       14.71755        9.42085
C          1.36832       13.53131        8.77880
C          0.87907       12.46349        9.48578
C          0.53107       11.16597        8.89618
C          0.03746       10.37357        9.85431
C          0.06026       11.09299       11.09908
N         -0.38960       10.47057       12.31606
O          0.42402       10.34392       13.23916
O         -1.54851       10.03147       12.31634
C          0.55179       12.34999       10.98610
C          0.67228       13.35305       12.04115
C          0.19898       13.38608       13.29428
H        -15.42752        2.04411       -0.23168
H        -12.65068        0.38113       -0.41065
H        -11.91003        1.43945       -1.60620
H        -14.80177        0.41625       -1.71387
H        -13.45422       -0.11991       -2.71981
H        -14.07350        1.53493       -2.88002
H        -16.06630        6.94991        2.49506
H        -14.44521        7.60790        2.58963
H        -15.77264        5.65449        4.55804
H        -15.35778        7.35075        4.86525
H        -14.07604        6.13801        4.67925
H        -12.41339        6.98979        2.78438
H        -10.53096        5.26979        1.09460
H         -8.22628        9.85746        1.01177
H         -6.59423        8.09980        1.90799
H         -9.94359        4.83213        3.84586
H         -8.41599        3.13274        5.09952
H         -4.77335        5.35664        2.34552
H         -5.51680        7.74651        4.14057
H         -2.66305        7.63970       -1.45964
H         -1.57664        6.37875       -0.73281
H          0.33930       10.42442        1.01457
H          1.65335       13.94747        4.38756
H          0.39976       12.11166        6.47696
H          2.65691       16.60612        8.64931
H          2.26861       14.85090       10.43234
H          0.71427       10.81446        7.89607
H         -0.27799        9.34482        9.75225
H          1.21741       14.24895       11.80148
H         -0.39827       12.61983       13.76946
H          0.42601       14.24496       13.92493
