104

C          1.07289        0.43663        5.56825
N          0.78557        0.05397        4.26893
C          1.11469       -1.22666        3.68651
C          2.47868       -1.20853        3.01820
C          0.17840        1.08888        3.53446
O         -0.16303        1.08669        2.36994
C          0.06843        2.18143        4.53215
C          0.65774        1.68842        5.75357
C          0.57803        2.74362        6.76780
O          0.98955        2.69089        7.90804
N         -0.08537        3.77980        6.08084
C         -0.37645        5.04364        6.73258
C          0.72530        6.06937        6.51874
C         -0.36822        3.42863        4.74935
C         -1.05194        4.32475        3.84995
C         -1.39623        4.05757        2.58087
C         -2.11068        4.96271        1.74362
S         -3.15428        6.17748        2.35071
C         -3.52702        6.79304        0.78557
C         -3.03465        5.93056       -0.18773
C         -2.11490        4.99107        0.36462
O         -1.29340        4.18035       -0.33711
O         -3.35946        6.07992       -1.50251
C         -3.42985        4.85346       -2.23851
C         -4.30090        8.01891        0.65158
S         -4.06348        9.33654        1.74898
C         -5.28440       10.30140        1.04242
C         -5.75588        9.69709       -0.12334
C         -5.23997        8.36976       -0.30085
O         -5.63410        7.53438       -1.28936
O         -6.64983       10.37709       -0.90157
C         -6.96054        9.75980       -2.14750
C         -5.67693       11.55920        1.61645
C         -6.93072       11.79485        2.07883
N         -7.86750       10.81361        2.56919
O         -8.58488       11.19529        3.50816
O         -7.91849        9.69040        2.05907
C         -7.29103       13.19890        1.98877
C         -6.28483       13.86003        1.39852
C         -5.15911       12.91547        1.30273
C         -3.91525       13.42916        1.27644
C         -3.58936       14.53533        0.37376
C         -2.26459       14.71736        0.43393
C         -1.72585       13.84198        1.46251
N         -0.36344       14.00987        1.93475
O          0.43488       14.51831        1.13321
O         -0.07216       13.67609        3.08906
C         -2.68850       13.07685        2.04136
C         -2.56727       12.42232        3.34923
C         -3.31878       12.75056        4.42084
C         -3.03691       12.34739        5.80215
C         -3.89914       12.42683        6.83301
C         -3.55488       12.24454        8.30553
O         -2.55593       11.75215        8.77100
C         -4.71935       12.80034        9.06648
C         -5.03899       12.73634       10.41268
C         -6.28676       13.26707       10.83248
C         -7.10420       13.98583        9.90326
C         -8.33118       14.52999       10.30022
C         -8.80238       14.30210       11.58377
C         -8.04980       13.56106       12.48338
C         -6.79264       13.06500       12.12855
F         -8.53921       13.29800       13.70284
F        -10.00736       14.77532       11.93008
C         -6.74443       14.05202        8.55910
C         -5.63696       13.33064        8.15488
C         -5.33230       12.72101        6.84878
C         -6.26062       11.92237        6.25665
C         -5.86589       10.88383        5.37224
N         -5.53127       10.01708        4.68057
C         -7.60706       11.83281        6.73116
N         -8.66432       11.75552        7.20250
H          1.55169       -0.22336        6.27583
H          0.35300       -1.46763        2.93557
H          1.07267       -1.99630        4.46436
H          2.52707       -0.43893        2.24033
H          2.68789       -2.17712        2.55439
H          3.26820       -0.99686        3.74630
H         -0.48018        4.86103        7.80841
H         -1.34243        5.42894        6.39091
H          1.67942        5.70661        6.91497
H          0.47744        7.00486        7.03028
H          0.86678        6.28910        5.45579
H         -1.30841        5.29673        4.25831
H         -1.12771        3.12001        2.10939
H         -1.09534        4.57632       -1.20198
H         -4.24134        4.94114       -2.96749
H         -3.64501        3.97726       -1.61537
H         -2.49921        4.70885       -2.79575
H         -5.10423        6.71794       -1.27790
H         -7.56720        8.85930       -2.00282
H         -6.05784        9.54933       -2.73335
H         -7.56274       10.46178       -2.73213
H         -8.23929       13.61199        2.29811
H         -6.25244       14.92254        1.21065
H         -4.27012       15.03348       -0.30045
H         -1.68937       15.42970       -0.13948
H         -1.71726       11.75074        3.47092
H         -4.13853       13.45507        4.29266
H         -2.00650       12.05320        6.01005
H         -4.38607       12.21013       11.10456
H         -8.96149       15.08076        9.60639
H         -6.24736       12.47741       12.86184
H         -7.40170       14.51851        7.82893
