125

C         -4.38324       -3.13551       -0.21749
N         -3.47370       -2.16518        0.19859
C         -2.05134       -2.42162        0.34976
C         -1.16292       -1.21235        0.09551
C         -4.12705       -0.97526        0.57831
O         -3.69180        0.06176        1.03415
C         -5.53977       -1.27746        0.29038
C         -5.61626       -2.62985       -0.18772
C         -7.02886       -2.92668       -0.47295
O         -7.48373       -3.96725       -0.90064
N         -7.67156       -1.70838       -0.15317
C         -9.08270       -1.50855       -0.40706
C         -9.95338       -2.09661        0.68951
C         -6.76476       -0.74894        0.29904
C         -7.13285        0.58946        0.68010
C         -6.52533        1.66583        0.15640
C         -6.84026        3.04805        0.43676
C         -7.45586        3.89281       -0.42763
N         -7.91857        3.54593       -1.75049
O         -8.87600        4.19284       -2.19925
O         -7.32480        2.65224       -2.37610
C         -7.66170        5.19989        0.13485
C         -7.20649        5.19211        1.39299
C         -6.63016        3.87275        1.68428
C         -6.00280        3.53494        2.83841
C         -5.35078        2.24665        3.08863
C         -4.81302        2.26627        4.31612
C         -5.09996        3.54767        4.91216
N         -4.66941        3.89144        6.24911
O         -3.60741        3.38627        6.64025
O         -5.39939        4.61238        6.93896
C         -5.80926        4.34994        4.08713
C         -6.27029        5.68309        4.41263
C         -5.82657        6.81587        3.84151
C         -6.39820        8.07123        4.16975
S         -6.96026        9.18946        2.98293
C         -7.43219       10.37779        4.15959
C         -7.14589        9.85656        5.38095
C         -6.54630        8.59909        5.42233
S         -6.07181        7.97978        7.04008
C         -6.59223        9.54163        7.64621
C         -6.32205        9.89548        9.03068
O         -6.85316       10.82940        9.62297
O         -5.32745        9.11676        9.54665
C         -4.81383        9.51199       10.81794
C         -5.66789        8.93239       11.92720
C         -7.22851       10.36636        6.70365
C         -7.92294       11.64969        3.76544
C         -7.18363       12.78591        3.77301
N         -5.78485       12.87377        4.11854
O         -5.03968       11.93099        3.82505
O         -5.40997       13.93387        4.63760
C         -7.93488       13.92607        3.30174
C         -9.15025       13.50205        2.92859
C         -9.22512       12.05629        3.15600
C        -10.29318       11.28912        2.84778
C        -10.53179        9.93672        3.35316
C        -11.70211        9.51140        2.85395
C        -12.23233       10.54282        1.98842
N        -13.42245       10.35830        1.18825
O        -14.27035        9.57199        1.63401
O        -13.51286       10.94714        0.10441
C        -11.44844       11.64298        1.96562
C        -11.65825       12.81685        1.13933
C        -10.88844       13.14636        0.08940
C        -11.10513       14.30008       -0.73855
N        -11.19334       14.23209       -2.12933
C        -11.27948       13.02826       -2.93115
C        -12.72203       12.59546       -3.14392
C        -11.40198       15.50342       -2.70439
O        -11.57183       15.80246       -3.86861
C        -11.38963       16.39874       -1.53359
C        -11.21772       15.57993       -0.36151
C        -11.22951       16.46902        0.80970
O        -11.11006       16.15159        1.97567
N        -11.41877       17.74263        0.23722
C        -11.47182       18.93681        1.05717
C        -10.09918       19.55216        1.27366
C        -11.48582       17.67843       -1.15989
C        -11.69431       18.83357       -1.99254
C        -11.24969       18.97116       -3.24853
H         -4.07530       -4.12660       -0.51866
H         -1.77157       -3.21349       -0.35539
H         -1.88665       -2.79851        1.36484
H         -1.37790       -0.76012       -0.87797
H         -0.10843       -1.50355        0.11787
H         -1.30056       -0.44648        0.86482
H         -9.32392       -2.00345       -1.35516
H         -9.29743       -0.44265       -0.53590
H         -9.72722       -3.15539        0.85271
H        -11.01030       -2.01234        0.41774
H         -9.79901       -1.57046        1.63669
H         -7.92654        0.69110        1.41590
H         -5.75225        1.53080       -0.60241
H         -8.10091        6.03796       -0.38437
H         -7.25274        6.05526        2.02392
H         -5.26093        1.41314        2.41782
H         -4.25344        1.47469        4.79005
H         -7.03383        5.71690        5.19085
H         -5.08524        6.78240        3.04599
H         -4.73811       10.60328       10.89140
H         -3.79482        9.11633       10.89150
H         -6.70861        9.25785       11.83437
H         -5.28934        9.23719       12.90646
H         -5.67103        7.83900       11.87243
H         -7.63031       11.33552        6.97792
H         -7.58581       14.94804        3.30335
H         -9.95392       14.14714        2.61944
H         -9.94440        9.39839        4.07912
H        -12.19726        8.57623        3.06973
H        -12.53073       13.42141        1.38856
H        -10.03491       12.52307       -0.17988
H        -10.69530       12.22552       -2.47110
H        -10.82949       13.23877       -3.90857
H        -13.22308       12.40773       -2.19016
H        -12.76244       11.68029       -3.74199
H        -13.29222       13.36975       -3.66819
H        -11.88928       18.66315        2.03367
H        -12.15858       19.66467        0.61623
H         -9.44216       18.86366        1.81552
H        -10.18573       20.47153        1.86170
H         -9.61690       19.79746        0.32235
H        -12.26473       19.65592       -1.56981
H        -10.68062       18.20032       -3.75996
H        -11.46532       19.87042       -3.81733
