122

C         -4.37835       -4.49184        7.53439
N         -3.73621       -3.45500        6.87170
C         -2.59859       -3.62620        5.99630
C         -3.02285       -3.87913        4.56028
C         -4.35311       -2.21149        7.11231
O         -4.04778       -1.10199        6.72757
C         -5.45762       -2.57659        8.02004
C         -5.39874       -3.99641        8.23235
C         -6.50311       -4.37184        9.12153
O         -6.78417       -5.49344        9.49170
N         -7.10468       -3.12462        9.41496
C         -8.22568       -3.02881       10.32955
C         -7.93490       -3.71379       11.66263
C         -6.49927       -2.08426        8.69506
C         -7.00382       -0.74467        8.54944
C         -7.42889        0.09100        9.50867
C         -8.02602        1.39814        9.28010
C         -8.90546        1.76835        8.33328
C         -9.38852        3.12138        8.15847
C         -9.91510        3.33963        6.94193
C         -9.87480        2.16499        6.08372
S         -9.55318        0.74497        7.07315
C         -9.90861        2.14772        4.73693
C        -10.01185        3.30563        3.86878
C         -9.63087        3.06149        2.60189
C         -9.18662        1.69946        2.39300
S         -9.61717        0.70210        3.76029
C         -8.46592        1.30896        1.33027
C         -7.81856        0.04035        1.09943
N         -6.76745       -0.48585        1.87853
C         -6.14781        0.16692        3.01538
C         -5.87609       -0.78595        4.16639
C         -6.24287       -1.66796        1.30316
O         -5.29652       -2.35124        1.64627
C         -7.09642       -1.86986        0.12189
C         -8.02187       -0.76882        0.06102
C         -8.83397       -0.94184       -1.14748
O         -9.69794       -0.19103       -1.55865
N         -8.35453       -2.16525       -1.69373
C         -8.96174       -2.62267       -2.92209
C         -8.45702       -3.88081       -3.59767
C         -7.30774       -2.68329       -0.91918
C         -6.57780       -3.90221       -1.18653
C         -5.24118       -3.94616       -1.29802
C         -4.44761       -5.15202       -1.49602
C         -3.14399       -5.16443       -1.82769
C         -2.28838       -6.33092       -1.86819
C         -0.97991       -6.03108       -1.95025
C         -0.71593       -4.60120       -1.98181
S         -2.22645       -3.73390       -2.23451
C          0.44417       -3.97486       -1.70839
C          1.68690       -4.58525       -1.27617
C          2.49574       -3.73165       -0.62590
C          1.96521       -2.38583       -0.54752
S          0.60079       -2.22093       -1.62331
C          2.43816       -1.40106        0.23445
C          1.97406       -0.03585        0.22372
N          0.71510        0.42924        0.64104
C         -0.34676       -0.36466        1.23793
C         -1.15892        0.35633        2.31414
C          0.50073        1.75791        0.20203
O         -0.47335        2.47380        0.28301
C          1.79231        2.11633       -0.39458
C          2.65117        0.97269       -0.32936
C          3.92787        1.32315       -0.97424
O          4.89408        0.60000       -1.08894
N          3.73410        2.68206       -1.31756
C          4.79559        3.60372       -1.69831
C          6.18590        3.19716       -1.22752
C          2.42448        3.09113       -1.04318
C          1.85960        4.31943       -1.52574
C          1.08385        5.13876       -0.80704
H         -4.05559       -5.51941        7.45531
H         -1.98985       -4.45796        6.36754
H         -1.98769       -2.71742        6.03847
H         -2.14978       -4.07830        3.93243
H         -3.54045       -3.00936        4.14924
H         -3.70327       -4.73393        4.49146
H         -9.10349       -3.48056        9.85565
H         -8.46901       -1.98741       10.53434
H         -8.27273       -4.75517       11.63761
H         -8.46607       -3.21527       12.47879
H         -6.86533       -3.71147       11.90122
H         -7.04687       -0.42435        7.50758
H         -7.28810       -0.17017       10.55468
H         -7.70370        2.14638       10.00354
H         -9.28197        3.88278        8.91885
H        -10.27501        4.30450        6.61501
H        -10.30423        4.28522        4.21702
H         -9.58512        3.81813        1.83290
H         -8.28066        2.03296        0.53760
H         -6.77338        0.97803        3.38791
H         -5.21020        0.61673        2.67460
H         -6.68322       -1.51168        4.30879
H         -5.75099       -0.22101        5.09325
H         -4.94979       -1.33649        3.98802
H         -8.89405       -1.79313       -3.63838
H        -10.03213       -2.74427       -2.71118
H         -7.40195       -3.79619       -3.87227
H         -9.02471       -4.05266       -4.51898
H         -8.60136       -4.76065       -2.96596
H         -7.16349       -4.81098       -1.27782
H         -4.68237       -3.01681       -1.18614
H         -4.94591       -6.09462       -1.27854
H         -2.66862       -7.34028       -1.78668
H         -0.19453       -6.77362       -1.94940
H          1.91367       -5.63178       -1.42051
H          3.44999       -4.00683       -0.19828
H          3.31650       -1.58633        0.84947
H          0.08641       -1.26297        1.68959
H         -1.02427       -0.66416        0.43370
H         -0.53406        0.62670        3.17084
H         -1.96924       -0.29010        2.66705
H         -1.63011        1.27084        1.94399
H          4.57131        4.56940       -1.22782
H          4.77312        3.74570       -2.78318
H          6.17099        2.84533       -0.18957
H          6.87290        4.04648       -1.28298
H          6.59145        2.39812       -1.85556
H          2.02810        4.53934       -2.57864
H          0.85621        4.94898        0.23773
H          0.62320        6.00778       -1.26576
