118

C          4.52513        3.94813        4.37793
N          4.19481        5.27623        4.63608
C          5.14624        6.36832        4.51415
C          4.61879        7.74664        4.88894
C          2.84369        5.40625        5.00014
O          2.19690        6.39943        5.26319
C          2.35544        4.01424        4.97260
C          3.45464        3.17733        4.57077
C          2.97550        1.78738        4.52182
O          3.61230        0.80604        4.19988
N          1.62783        1.91428        4.92873
C          0.76085        0.75633        5.03876
C         -0.04320        0.52290        3.76986
C          1.27808        3.25211        5.18005
C         -0.04745        3.66189        5.58436
C         -0.40944        4.88321        6.01506
C         -1.74144        5.23042        6.44940
C         -2.34888        4.81768        7.58796
N         -1.72429        4.03243        8.62739
O         -2.03444        4.32050        9.79165
O         -0.96978        3.10478        8.31060
C         -3.72205        5.25175        7.65678
C         -3.99663        5.96579        6.55511
C         -2.75629        6.11648        5.78139
C         -2.59059        6.95020        4.72512
C         -1.35442        7.10658        3.95196
C         -1.59669        7.94751        2.93527
C         -2.96682        8.40179        3.02721
N         -3.52927        9.37777        2.10564
O         -4.73622        9.64697        2.16167
O         -2.74906        9.87414        1.27972
C         -3.59313        7.88105        4.10939
C         -4.90457        8.28277        4.57605
C         -5.11688        8.95206        5.72476
C         -6.40801        9.46461        6.05644
S         -7.26592       10.40013        4.89716
C         -8.71644       10.51848        5.83904
C         -8.47608        9.97943        7.09411
C         -7.11758        9.47316        7.24089
C         -6.58614        8.99509        8.44825
C         -7.48665        9.10033        9.53882
C         -7.03007        8.71819       10.93344
F         -5.72465        8.33431       10.99141
F         -7.16076        9.73784       11.82609
F         -7.74859        7.67952       11.44165
C         -8.83791        9.55620        9.37650
C         -9.40163        9.96391        8.14790
C         -9.85484       11.22763        5.20680
C        -10.14491       11.11398        3.83398
C         -9.73159       10.04856        2.91255
O         -9.54912        8.89432        3.25551
S         -9.83757       10.56931        1.25144
C        -10.79163       11.95431        1.71936
O        -11.12186       12.83956        0.95170
C        -11.02558       11.97750        3.17269
C        -11.95324       12.74789        3.87476
C        -11.78875       12.70344        5.26099
C        -10.68819       12.12187        5.87032
C        -10.65173       12.70176        7.20202
O         -9.68712       12.82995        7.92517
O        -11.89312       13.16953        7.44536
C        -12.67643       13.08373        6.34552
O        -13.87770       13.16843        6.30748
C        -13.02937       13.45316        3.16078
C        -13.76284       14.47394        3.62417
C        -14.84846       15.11672        2.93673
N        -14.85571       15.57789        1.61733
C        -13.77726       15.52647        0.65106
C        -12.91016       16.77369        0.67022
C        -16.05592       16.26654        1.32226
O        -16.39643       16.82449        0.29645
C        -16.81039       16.17498        2.58482
C        -16.00758       15.44234        3.51646
C        -16.75442       15.33361        4.77810
O        -16.41705       14.71268        5.76311
N        -17.91937       16.08835        4.52363
C        -19.04860       16.13945        5.44265
C        -18.67370       16.18709        6.92002
C        -17.93661       16.54522        3.19768
C        -18.98703       17.35092        2.64462
C        -19.56925       17.11257        1.46293
H          5.51589        3.64885        4.06858
H          5.49396        6.38479        3.47552
H          6.00276        6.12774        5.15400
H          3.78533        8.04091        4.24157
H          5.40265        8.50082        4.78057
H          4.27280        7.76978        5.92836
H          0.10211        0.87055        5.90551
H          1.37961       -0.12901        5.23034
H         -0.62632        1.40783        3.49621
H         -0.73575       -0.31376        3.90516
H          0.61779        0.28667        2.92960
H         -0.80717        2.88367        5.58056
H          0.29113        5.70417        6.08519
H         -4.41457        4.96396        8.43282
H         -4.97553        6.33067        6.29757
H         -0.38948        6.66922        4.14438
H         -0.88230        8.28856        2.19979
H         -5.72312        8.09361        3.87924
H         -4.30574        9.11943        6.42754
H         -5.57405        8.62702        8.57056
H         -9.47289        9.61282       10.26532
H        -10.43237       10.28379        8.10457
H        -13.24380       13.08144        2.16086
H        -13.63545       14.84236        4.63962
H        -14.22021       15.41979       -0.34635
H        -13.16042       14.64375        0.80520
H        -13.42632       17.61071        0.18900
H        -11.98144       16.59222        0.11939
H        -12.65307       17.07451        1.69037
H        -19.67044       15.25712        5.25309
H        -19.64634       17.02941        5.22267
H        -18.23843       15.24145        7.25768
H        -19.56480       16.35939        7.53191
H        -17.95452       16.98703        7.12196
H        -19.28787       18.22318        3.21946
H        -19.29494       16.26258        0.84409
H        -20.32701       17.78378        1.07217
