99

C          0.11305       -1.41191       -1.22110
N          0.96044       -0.37931       -1.60561
C          2.31189       -0.55964       -2.09189
C          2.37128       -0.76175       -3.59751
C          0.34487        0.88287       -1.48147
O          0.77509        1.99023       -1.72720
C         -0.99060        0.53381       -0.95988
C         -1.05523       -0.89919       -0.83372
C         -2.39287       -1.25030       -0.32734
O         -2.81329       -2.36208       -0.08232
N         -3.02164        0.00922       -0.21714
C         -4.39269        0.14660        0.23245
C         -4.50741        0.25408        1.74412
C         -2.15888        1.04838       -0.57296
C         -2.53866        2.43135       -0.53965
C         -1.87675        3.36385        0.16255
C         -2.30147        4.70667        0.12657
S         -1.68253        5.88286       -0.98337
C         -2.64309        7.16832       -0.32899
C         -3.38958        6.65858        0.67395
C         -3.20034        5.31498        0.93131
N         -3.92022        4.76516        1.95467
C         -4.63836        5.87098        2.39341
N         -5.53606        5.72489        3.49781
O         -5.62069        4.59402        3.99399
O         -6.14924        6.73468        3.85946
C         -4.35199        7.03364        1.64943
C         -2.59094        8.51502       -0.78359
C         -2.51700        9.65312       -1.13863
C         -2.40546       11.02195       -1.52416
S         -2.67337       12.31003       -0.43756
C         -2.33496       13.48087       -1.63722
C         -2.02842       12.90023       -2.84699
C         -2.07017       11.47283       -2.78190
C         -2.39578       14.87735       -1.36918
C         -2.53002       16.11665       -0.98688
C         -2.68651       17.56139       -0.54120
C         -1.70630       18.28053        0.01865
C         -1.92397       19.62721        0.42214
S         -3.44061       20.28570        0.96705
C         -2.78385       21.85491        1.36278
C         -1.47879       21.82149        0.99699
C         -1.00959       20.62167        0.48820
N          0.30334       20.57492        0.10096
C          0.70187       21.86972        0.38950
N          2.03380       22.25999        0.07310
O          2.93498       21.53623        0.51143
O          2.16357       23.26162       -0.63625
C         -0.32510       22.65262        0.94941
C         -3.60619       22.85119        1.93315
N         -3.86548       23.00270        3.29843
C         -3.33227       22.20935        4.38444
C         -4.19802       21.00711        4.72423
C         -4.73779       24.08258        3.54320
O         -5.16844       24.51267        4.59300
C         -4.98804       24.60652        2.19356
C         -4.25976       23.79692        1.25026
C         -4.53259       24.34119       -0.09322
O         -4.13216       23.90416       -1.15235
N         -5.35270       25.46433        0.17860
C         -5.88698       26.31591       -0.87025
C         -4.79693       27.03225       -1.65564
C         -5.63750       25.56950        1.54017
C         -6.49395       26.57512        2.10340
C         -7.61448       26.30033        2.77936
H          0.41353       -2.44896       -1.25196
H          2.76188       -1.41428       -1.57531
H          2.89197        0.33250       -1.83028
H          1.80712       -1.64939       -3.90130
H          3.40985       -0.89151       -3.91958
H          1.95533        0.09951       -4.13044
H         -4.95007       -0.73513       -0.10412
H         -4.85246        1.01770       -0.24532
H         -4.06853       -0.61813        2.23932
H         -5.56033        0.31828        2.03787
H         -3.99527        1.14642        2.11740
H         -3.40866        2.70282       -1.13372
H         -0.99673        3.11881        0.75232
H         -3.91585        3.81197        2.29848
H         -4.78458        8.01331        1.81187
H         -1.78861       13.46224       -3.74144
H         -1.86285       10.81724       -3.61920
H         -3.67213       17.97410       -0.73997
H         -0.72866       17.83131        0.16933
H          0.81384       19.80902       -0.32264
H         -0.23515       23.68602        1.25833
H         -3.28119       22.85075        5.27315
H         -2.30785       21.90437        4.15084
H         -5.21397       21.31143        4.99700
H         -3.76775       20.46194        5.57048
H         -4.27364       20.31540        3.88222
H         -6.56231       27.06707       -0.44730
H         -6.47638       25.68632       -1.54565
H         -4.27992       27.76257       -1.02471
H         -5.23191       27.56375       -2.50788
H         -4.04609       26.33746       -2.04269
H         -6.19632       27.61124        1.95373
H         -7.95429       25.28206        2.94548
H         -8.22458       27.09833        3.19096
