85

C         -1.73825       -0.24107       -5.33911
N         -0.71804        0.63144       -5.69429
C          0.24244        0.37682       -6.74756
C         -0.26566        0.82016       -8.11019
C         -0.76208        1.82750       -4.94638
O         -0.05792        2.81408       -5.00289
C         -1.91614        1.60167       -4.05212
C         -2.46397        0.30951       -4.36691
C         -3.63084        0.08454       -3.50510
O         -4.35902       -0.88642       -3.51114
N         -3.67213        1.26221       -2.72130
C         -4.72410        1.47351       -1.74598
C         -4.69704        0.47449       -0.59694
C         -2.65047        2.15213       -3.08114
C         -2.41935        3.44431       -2.49082
C         -3.30211        4.45671       -2.49134
C         -2.97912        5.69497       -1.87198
S         -3.33073        5.94025       -0.21999
C         -2.69980        7.54388       -0.21857
C         -2.85458        8.26540        1.03132
O         -2.64712        9.45939        1.23337
C         -2.19188        7.89068       -1.46279
C         -2.40232        6.82653       -2.41529
C         -1.49339        9.18567       -1.83609
S         -0.60535       10.17839       -0.78342
C         -0.18334       11.31069       -2.00923
C          0.68149       12.38642       -1.57371
O          0.98033       13.40050       -2.19845
C         -0.69451       10.93386       -3.23931
C         -1.42008        9.68257       -3.11842
C         -0.47405       11.60182       -4.58553
S         -0.63284       10.72190       -6.01049
C          0.10848       11.95221       -6.99541
C          0.49743       11.30215       -8.24572
O          0.87973       11.74612       -9.32140
C          0.08484       13.20013       -6.33429
C         -0.17520       12.90930       -4.90494
C          0.34402       14.60566       -6.75924
N          0.66675       15.06587       -8.06263
C          0.76662       14.38944       -9.31876
C         -0.59278       14.00083       -9.87675
C          0.83077       16.46176       -8.14084
O          1.06697       17.16960       -9.10367
C          0.61673       16.87569       -6.78124
C          0.26551       15.72759       -5.97627
C         -0.05920       16.33063       -4.63692
O         -0.54984       15.78388       -3.66936
N          0.22132       17.71754       -4.78415
C         -0.06782       18.68679       -3.73719
C          1.12671       19.52883       -3.30681
C          0.60363       18.01435       -6.08347
C          0.84054       19.34583       -6.58078
C          1.78549       19.66514       -7.47660
H         -1.87392       -1.20015       -5.81735
H          0.47826       -0.69328       -6.75985
H          1.16389        0.92049       -6.51279
H         -1.16054        0.25923       -8.39908
H          0.50087        0.65349       -8.87380
H         -0.52329        1.88423       -8.10950
H         -5.67845        1.37949       -2.27662
H         -4.67580        2.48211       -1.33050
H         -4.72515       -0.56075       -0.95008
H         -5.56742        0.62740        0.05016
H         -3.79444        0.59798        0.00905
H         -1.42673        3.58702       -2.06349
H         -4.28247        4.35240       -2.94956
H         -3.23479        7.66566        1.87805
H         -2.09110        6.86295       -3.45290
H          1.13503       12.24928       -0.57506
H         -1.90538        9.19138       -3.95853
H          0.45175       10.19574       -8.21925
H         -0.15418       13.66251       -4.13665
H          1.53638       13.63844       -9.19950
H          1.21430       15.05649      -10.06670
H         -1.17431       13.38759       -9.18343
H         -0.47524       13.45197      -10.81618
H         -1.19201       14.89398      -10.08595
H         -0.44812       18.15498       -2.85765
H         -0.87985       19.33460       -4.08802
H          1.96644       18.89952       -2.99884
H          0.84869       20.17053       -2.46334
H          1.47820       20.18852       -4.10542
H          0.19087       20.13417       -6.21345
H          2.46388       18.93177       -7.89876
H          1.89019       20.68425       -7.84090
