105

C          1.21921        0.23468        4.67918
N          0.77046       -0.20567        3.44209
C          0.66852       -1.59512        3.05214
C         -0.67852       -2.19970        3.41327
C          0.38680        0.85192        2.60943
O         -0.06964        0.85529        1.48890
C          0.66408        2.04179        3.45104
C          1.17051        1.56646        4.71313
C          1.44057        2.73288        5.56054
O          1.86069        2.72218        6.69647
N          1.07522        3.81283        4.73315
C          1.12705        5.18015        5.20580
C          2.47115        5.83837        4.94505
C          0.62608        3.37292        3.48167
C          0.20595        4.25971        2.43121
C         -1.02813        4.24738        1.89676
C         -1.45094        5.15261        0.86889
S         -0.76678        6.74214        0.75439
C         -1.74588        7.21874       -0.57494
C         -2.54778        6.16686       -0.97267
C         -2.42359        5.00426       -0.10967
C         -3.19053        3.83659       -0.27387
C         -4.08655        3.92574       -1.36571
C         -4.97642        2.77875       -1.65332
O         -4.68073        1.63025       -1.35273
C         -4.19371        5.06310       -2.22670
C         -3.41926        6.23430       -2.07033
C         -1.60907        8.55144       -1.06138
C         -2.36471        9.53171       -0.53845
C         -2.32145       10.87309       -1.01990
S         -2.65054       12.16393        0.04748
C         -2.58631       13.35389       -1.19935
C         -2.94139       14.69562       -0.76858
O         -3.08057       15.70041       -1.46336
C         -2.25768       12.79073       -2.42972
C         -2.07996       11.36484       -2.29048
C         -2.05103       13.54637       -3.74874
S         -1.44004       15.15492       -3.77244
C         -1.32330       15.26249       -5.48183
C         -1.69144       14.05453       -6.03846
C         -2.17666       13.08739       -5.05331
C         -2.68768       11.83440       -5.43293
C         -2.57317       11.58041       -6.82428
C         -3.01720       10.26209       -7.31695
O         -3.87805        9.61361       -6.73439
C         -2.03772       12.50246       -7.76948
C         -1.59607       13.79088       -7.41471
C         -0.83695       16.49425       -6.01259
C         -1.34528       17.06905       -7.11452
C         -0.83626       18.30435       -7.64528
N         -0.32181       18.43508       -8.93581
C         -0.29683       17.41644       -9.96421
C         -1.53288       17.48537      -10.84758
C          0.12241       19.75408       -9.18837
O          0.60344       20.22543      -10.19838
C         -0.15541       20.44256       -7.91607
C         -0.75918       19.48430       -7.02749
C         -1.07303       20.16968       -5.76122
O         -1.60519       19.69514       -4.77899
N         -0.60346       21.47851       -6.00014
C         -0.72335       22.51553       -4.99883
C         -2.01934       23.29698       -5.14007
C         -0.06942       21.61372       -7.28316
C          0.46238       22.84987       -7.78113
C          1.73025       23.01173       -8.18064
H          1.54706       -0.44326        5.45259
H          1.47944       -2.15570        3.53022
H          0.81023       -1.66144        1.96719
H         -0.85770       -2.15076        4.49215
H         -0.71655       -3.25043        3.10812
H         -1.49580       -1.66944        2.91344
H          0.95346        5.16763        6.28866
H          0.31396        5.76150        4.75896
H          3.28493        5.27265        5.41123
H          2.48208        6.85183        5.35920
H          2.67824        5.90414        3.87286
H          0.96922        4.95145        2.08313
H         -1.75544        3.51898        2.24766
H         -3.13446        2.95294        0.35134
H         -5.92667        3.01373       -2.16384
H         -4.89479        5.02660       -3.06226
H         -3.50724        7.07254       -2.75076
H         -0.86492        8.73760       -1.82944
H         -3.05797        9.31098        0.27260
H         -3.14370       14.80768        0.31227
H         -1.79978       10.69925       -3.09616
H         -3.13445       11.10316       -4.77225
H         -2.52836        9.88585       -8.23097
H         -1.98576       12.22081       -8.82122
H         -1.20441       14.47842       -8.15336
H         -0.04197       16.99089       -5.45727
H         -2.17374       16.62099       -7.65469
H         -0.19771       16.42454       -9.51055
H          0.59085       17.57728      -10.58748
H         -2.44741       17.36893      -10.25735
H         -1.50856       16.69661      -11.60553
H         -1.59020       18.45038      -11.36241
H          0.14449       23.18268       -5.04760
H         -0.70862       22.03953       -4.01086
H         -2.05435       23.83548       -6.09190
H         -2.11277       24.02735       -4.33059
H         -2.88733       22.63044       -5.10232
H         -0.21597       23.69837       -7.81317
H          2.45368       22.20183       -8.15858
H          2.07679       23.97589       -8.54063
