95

C         -4.20110        0.12175        5.59272
N         -2.82325        0.22014        5.44889
C         -1.91386       -0.90384        5.52982
C         -1.71734       -1.58134        4.18320
C         -2.41625        1.53726        5.14736
O         -1.30985        1.98572        4.92976
C         -3.69824        2.27155        5.13895
C         -4.74641        1.32413        5.41523
C         -6.03001        2.03918        5.38935
O         -7.13082        1.56936        5.59028
N         -5.64271        3.35928        5.07336
C         -6.62233        4.41859        4.93291
C         -6.90731        5.13908        6.23803
C         -4.25209        3.47183        4.95470
C         -3.55746        4.69629        4.66651
C         -3.76681        5.40441        3.54759
C         -3.11926        6.63938        3.27390
S         -3.79276        7.64253        2.06335
C         -2.61404        8.88912        2.26181
C         -1.70952        8.52225        3.25045
C         -1.99676        7.23503        3.81573
C         -0.59448        9.32850        3.67766
N          0.30233        9.96238        4.04377
C         -2.70546       10.09453        1.48627
C         -3.24947       10.12520        0.25577
C         -3.34063       11.33914       -0.47998
O         -3.38441       12.56929        0.12643
C         -3.51722       13.56315       -0.80996
C         -3.51734       12.95394       -2.05707
C         -3.42108       11.55429       -1.85096
C         -3.38833       10.54824       -2.86206
N         -3.36320        9.73514       -3.69620
C         -3.58105       13.62949       -3.31357
N         -3.62683       14.17031       -4.33785
C         -3.63820       14.93666       -0.46250
C         -3.10799       15.41913        0.67542
C         -3.20947       16.80034        1.03056
S         -3.32519       18.02884       -0.16149
C         -3.45586       19.30664        0.98334
C         -3.35025       18.79839        2.26822
C         -3.19387       17.37220        2.29063
C         -3.43611       19.59070        3.46259
N         -3.50775       20.24068        4.42097
C         -3.67817       20.60463        0.43470
C         -3.38255       21.75446        1.05712
C         -3.68361       23.03254        0.47243
N         -4.51799       23.97550        1.07371
C         -5.14489       23.85763        2.37870
C         -6.66473       23.87898        2.31210
C         -4.63641       25.14178        0.28131
O         -5.25144       26.16668        0.49313
C         -3.79887       24.82816       -0.89177
C         -3.24024       23.51903       -0.68971
C         -2.37565       23.20852       -1.83756
O         -1.73982       22.19134       -2.02277
N         -2.47838       24.37314       -2.62497
C         -1.75668       24.51284       -3.87307
C         -2.53551       23.98545       -5.06662
C         -3.35131       25.30482       -2.05569
C         -3.65196       26.57255       -2.65640
C         -4.88937       26.97253       -2.97555
H         -4.69621       -0.81324        5.81011
H         -2.30110       -1.62059        6.26279
H         -0.94682       -0.54016        5.89420
H         -2.66369       -1.97473        3.79757
H         -1.01432       -2.41526        4.27619
H         -1.32014       -0.87954        3.44264
H         -7.55273        3.97187        4.56394
H         -6.30528        5.13500        4.17252
H         -7.27197        4.44402        7.00044
H         -7.67236        5.90650        6.08040
H         -6.00911        5.62913        6.62649
H         -2.83412        5.01116        5.41457
H         -4.49389        5.04390        2.82055
H         -1.39700        6.77219        4.59179
H         -2.29598       11.00332        1.92567
H         -3.63890        9.22865       -0.21994
H         -4.17958       15.57684       -1.15364
H         -2.58234       14.75957        1.36393
H         -3.11263       16.79160        3.20457
H         -4.11617       20.64968       -0.56394
H         -2.91358       21.78778        2.03473
H         -4.79561       24.69807        2.98856
H         -4.82563       22.93652        2.87595
H         -7.03791       24.78512        1.82571
H         -7.08603       23.84519        3.32205
H         -7.04365       23.01794        1.75276
H         -0.82346       23.94292       -3.78942
H         -1.47803       25.56043       -4.02411
H         -2.74369       22.91567       -4.96009
H         -1.95628       24.12733       -5.98496
H         -3.49179       24.50469       -5.18153
H         -2.81135       27.23232       -2.85801
H         -5.76290       26.35113       -2.80155
H         -5.05847       27.94799       -3.42136
