110

C          0.48013       -0.16907       -8.39455
N          1.04323        1.04468       -8.77359
C          2.11801        1.19508       -9.72546
C          3.47867        1.15693       -9.05050
C          0.47541        2.13260       -8.08335
O          0.72601        3.31725       -8.14678
C         -0.51317        1.46161       -7.21969
C         -0.46021        0.05232       -7.47480
C         -1.47523       -0.59347       -6.63150
O         -1.74077       -1.78383       -6.63131
N         -2.02047        0.48225       -5.90154
C         -3.10296        0.35851       -4.93052
C         -3.08362       -0.93471       -4.12368
C         -1.45221        1.69302       -6.30462
C         -1.83401        2.99704       -5.85490
C         -0.92261        3.84886       -5.36946
C         -1.17700        5.23469       -5.14203
C         -1.07503        5.79642       -3.92678
C         -1.33995        7.22733       -4.06180
C         -1.58929        7.46069       -5.48732
C         -1.49296        6.27185       -6.10803
C         -1.78137        8.68353       -6.17013
N         -1.90105        9.67205       -6.76523
C         -1.38045        8.07678       -3.02220
C         -1.78463        9.48148       -3.04017
C         -1.97128        9.93530       -1.76984
C         -1.52671        8.83645       -0.91893
C         -1.14664        7.76907       -1.62579
C         -0.58669        6.61632       -1.01806
N         -0.13600        5.69326       -0.49229
C         -2.52587       11.25462       -1.47041
N         -2.39400       12.06062       -0.30698
C         -1.76952       11.95004        0.99018
C         -1.16902       10.67333        1.49071
C         -3.05816       13.30812       -0.47610
O         -3.13567       14.25127        0.28704
C         -3.67406       13.19068       -1.78783
C         -3.32508       11.91621       -2.33818
C         -3.99890       11.84837       -3.66587
O         -4.01697       10.91711       -4.44352
N         -4.62561       13.10414       -3.78565
C         -5.33850       13.50016       -4.98927
C         -6.85161       13.51093       -4.83515
C         -4.43558       13.87094       -2.64280
C         -4.94576       15.20254       -2.49270
C         -5.38083       15.70578       -1.33049
C         -5.85407       17.03520       -1.14886
S         -6.12640       17.51675        0.47874
C         -6.66192       19.09858        0.06972
C         -6.62781       19.24559       -1.30983
C         -6.16458       18.08653       -1.99622
N         -6.07598       18.01008       -3.41824
O         -6.93343       17.32633       -3.98701
O         -5.13597       18.60771       -3.94745
N         -7.04637       20.44140       -1.97351
O         -8.24371       20.73046       -1.88173
O         -6.17666       21.07482       -2.57538
C         -7.04262       20.04455        1.07657
C         -7.03088       19.76915        2.39171
C         -7.33616       20.73489        3.37955
N         -8.26696       21.71333        3.12772
C         -8.37897       22.53563        4.21212
C         -7.54346       22.05508        5.19503
C         -6.89040       20.89371        4.68560
C         -5.92250       20.02571        5.41834
C         -7.37607       22.64469        6.48180
C         -8.33856       23.30968        7.13846
C         -8.14383       23.90550        8.43508
C         -9.16902       24.21406        9.23636
H          0.78914       -1.10966       -8.82193
H          1.99618        2.15973      -10.23181
H          2.03824        0.40584      -10.48066
H          3.56708        1.94422       -8.29417
H          4.27282        1.30071       -9.78911
H          3.64192        0.19606       -8.55179
H         -4.05078        0.44453       -5.47190
H         -3.03949        1.19339       -4.22254
H         -3.30629       -1.80205       -4.75225
H         -3.84520       -0.90604       -3.33826
H         -2.10832       -1.09487       -3.65247
H         -2.86039        3.30648       -6.02730
H          0.10320        3.52995       -5.18447
H         -0.85269        5.23292       -3.03656
H         -1.56379        6.09060       -7.17137
H         -1.97101       10.02990       -3.94568
H         -1.45388        8.80282        0.14220
H         -2.54631       12.22029        1.72165
H         -1.01660       12.74495        1.06216
H         -1.94802        9.91024        1.55110
H         -0.79413       10.78759        2.51174
H         -0.31834       10.37910        0.87119
H         -5.07860       12.80267       -5.79356
H         -4.97759       14.48588       -5.30252
H         -7.23092       12.51111       -4.60254
H         -7.31806       13.84247       -5.76931
H         -7.17876       14.18818       -4.04082
H         -4.93949       15.77753       -3.40902
H         -5.34799       15.07396       -0.43971
H         -7.31793       21.04121        0.73918
H         -6.71981       18.80036        2.77189
H         -8.79845       21.81711        2.27419
H         -9.04200       23.38927        4.18550
H         -5.06656       20.61160        5.76725
H         -5.53557       19.21689        4.79073
H         -6.40739       19.56715        6.28680
H         -6.40930       22.50502        6.96021
H         -9.32746       23.40489        6.69485
H         -7.12516       24.10961        8.75661
H        -10.19661       23.99842        8.95918
H         -8.99534       24.66328       10.20792
