127

C         -1.31815        0.78150       -1.65255
N         -0.83098        1.43920       -0.53172
C          0.48990        1.22133        0.02176
C          1.53195        2.13628       -0.60117
C         -1.75011        2.39129       -0.03883
O         -1.66047        3.15617        0.90079
C         -2.89295        2.25064       -0.97301
C         -2.53567        1.24410       -1.92710
C         -3.64500        1.08864       -2.87681
O         -3.70189        0.34317       -3.81563
N         -4.58419        2.04255       -2.41244
C         -5.80504        2.27053       -3.15415
C         -6.98159        1.44932       -2.63288
C         -4.11852        2.70608       -1.25608
C         -4.81708        3.72068       -0.49379
C         -6.06566        4.14457       -0.70902
C         -6.82346        5.12956       -0.00237
C         -7.36996        6.24197       -0.55400
N         -7.17704        6.68127       -1.92088
O         -7.28314        7.89923       -2.13354
O         -6.95521        5.83842       -2.79966
C         -8.12785        6.98783        0.41374
C         -8.01156        6.38340        1.60662
C         -7.17386        5.19666        1.43510
C         -6.77382        4.36585        2.42114
C         -6.35170        2.97664        2.24687
C         -6.04871        2.48499        3.45636
C         -6.23061        3.53814        4.43111
N         -5.89751        3.36639        5.82213
O         -4.94908        2.60910        6.08057
O         -6.59073        3.94226        6.66772
C         -6.68833        4.68296        3.87512
C         -6.86681        5.98143        4.50570
C         -6.17743        7.08306        4.15157
C         -6.43880        8.43556        4.62500
C         -6.79814        9.47598        3.82271
N         -6.96043        9.43643        2.39196
O         -7.86401       10.14036        1.91247
O         -6.16994        8.75611        1.72883
C         -6.94378       10.70898        4.53890
C         -6.65234       10.48063        5.82273
C         -6.34685        9.05754        6.00949
C         -6.02066        8.48442        7.19668
C         -5.71065        7.06419        7.35287
C         -5.28703        6.82938        8.59921
C         -5.38036        8.06338        9.32989
N         -5.09351        8.10623       10.74198
O         -4.49255        9.10913       11.18330
O         -5.43092        7.13274       11.40859
C         -5.85858        9.08379        8.57365
C         -6.33215       10.34247        9.13018
C         -5.93089       11.58524        8.82022
C         -6.44561       12.68817        9.56097
S         -5.55269       13.16096       10.93313
C         -7.53901       13.52343        9.37955
C         -8.48427       13.43821        8.26483
O         -8.55281       12.51682        7.46760
C         -9.39047       14.58312        8.21529
C        -10.29268       14.89690        7.22210
N        -10.96707       16.02273        7.61175
C        -12.01645       16.65514        6.83029
C        -11.45162       17.70469        5.89156
C        -10.50984       16.44019        8.83840
C         -9.49893       15.57850        9.23030
C         -8.68250       15.59743       10.44367
O         -8.81779       16.43021       11.33048
C         -7.65555       14.52379       10.45095
C         -6.73394       14.28872       11.47065
C         -6.57326       14.92768       12.73982
C         -6.03583       14.38289       13.84484
C         -5.63902       15.33186       14.92549
O         -6.06414       16.43552       15.16620
C         -4.52487       14.65979       15.63891
C         -3.77222       15.19311       16.66697
C         -2.71316       14.42906       17.16508
C         -2.39194       13.17325       16.56219
C         -1.30197       12.44043       17.05431
C         -0.57223       12.91824       18.13902
C         -0.90954       14.12165       18.74239
C         -1.96696       14.88348       18.25905
F         -0.22016       14.56077       19.80397
F          0.45464       12.19608       18.60692
C         -3.18501       12.66735       15.51360
C         -4.29575       13.38658       15.09883
C         -5.44166       13.08364       14.19958
C         -6.01222       11.85654       14.12731
C         -7.37675       11.67906       13.75459
N         -8.50234       11.50863       13.52680
C         -5.36040       10.67584       14.60021
N         -4.81368        9.73320       15.00449
H         -0.75315        0.02573       -2.17539
H          0.76916        0.17293       -0.13241
H          0.44640        1.40272        1.10119
H          1.61984        1.95671       -1.67792
H          2.51227        1.96104       -0.14633
H          1.27079        3.18971       -0.45807
H         -5.63461        2.00369       -4.20210
H         -6.01559        3.33987       -3.20060
H         -6.77213        0.37887       -2.71357
H         -7.88353        1.66863       -3.21396
H         -7.21120        1.64824       -1.57997
H         -4.26134        4.13769        0.35013
H         -6.68225        3.74824       -1.49472
H         -8.66890        7.89756        0.19572
H         -8.48172        6.71180        2.51739
H         -6.39560        2.39344        1.33986
H         -5.76747        1.46911        3.69133
H         -7.63827        6.03347        5.27188
H         -5.42435        7.00857        3.36312
H         -7.21388       11.65517        4.09268
H         -6.66346       11.26563        6.54613
H         -5.83768        6.27573        6.64853
H         -5.02191        5.87066        9.01846
H         -7.06471       10.21872        9.93015
H         -5.16146       11.78128        8.07705
H        -10.50890       14.40038        6.28412
H        -12.74041       17.08930        7.52706
H        -12.52606       15.86729        6.26243
H        -10.93017       18.48923        6.44963
H        -12.25309       18.16784        5.30910
H        -10.73285       17.26158        5.19323
H        -10.93711       17.30651        9.33107
H         -6.85182       15.98327       12.77635
H         -4.02462       16.16978       17.07091
H         -1.01963       11.48437       16.62023
H         -2.20727       15.81850       18.75807
H         -2.93105       11.70902       15.06649
