114

C         -0.16584        5.36795        8.89811
N         -0.50581        4.47130        7.89677
C         -0.80390        3.07230        8.08394
C         -2.29053        2.83489        8.28782
C         -0.59729        5.09178        6.64165
O         -0.91320        4.59003        5.58267
C         -0.23047        6.49721        6.94238
C          0.00836        6.57615        8.36317
C          0.36088        7.96218        8.69601
O          0.60661        8.40554        9.80129
N          0.33530        8.60027        7.43852
C          0.61469       10.01735        7.30359
C         -0.63596       10.87232        7.43649
C         -0.02991        7.70851        6.41352
C         -0.12779        8.10426        5.03197
C         -0.43136        7.28535        4.01412
N         -0.53236        7.51405        2.65875
C         -0.96806        6.47200        1.70569
C          0.18112        5.47473        1.47942
C         -0.05202        4.66142        0.20979
N          1.05968        3.72017       -0.01875
S          2.00594        4.12829       -1.31683
N          1.11945        5.44084       -1.77410
C         -0.15354        5.56298       -1.05231
C         -0.41852        7.03217       -0.73468
C         -1.44379        7.18033        0.39466
N         -1.63738        8.59619        0.71153
S         -0.89623        9.04033        2.12346
C         -2.20004        9.57018       -0.06755
C         -3.04500        9.45181       -1.09800
C         -3.49480       10.61382       -1.77624
S         -3.96281       10.51214       -3.41769
C         -4.30533       12.19881       -3.52858
C         -4.10016       12.81123       -2.29989
C         -3.63002       11.90640       -1.31159
C         -4.33984       14.19537       -2.01926
N         -4.52278       15.31837       -1.79335
C         -4.74731       12.69020       -4.78643
C         -4.53245       13.95282       -5.18118
C         -4.99035       14.46380       -6.44025
C         -4.65602       13.94838       -7.64004
C         -5.32165       14.73335       -8.68246
C         -6.04323       15.80011       -7.96886
C         -5.84279       15.61723       -6.65352
C         -6.86997       16.82527       -8.48011
N         -7.57577       17.66359       -8.86131
C         -5.26984       14.46889      -10.00443
C         -5.91510       15.25043      -11.05452
C         -5.65376       14.69724      -12.26133
C         -4.83146       13.51821      -12.01338
C         -4.58909       13.37568      -10.69955
C         -3.80275       12.33019      -10.17016
N         -3.15709       11.45876       -9.74827
C         -6.09419       15.26809      -13.51385
N         -6.45135       14.56161      -14.67144
C         -6.50423       13.13003      -14.88215
C         -7.83165       12.50298      -14.49366
C         -6.80107       15.43865      -15.72710
O         -7.16479       15.17138      -16.85439
C         -6.59671       16.77351      -15.13921
C         -6.17572       16.58025      -13.77963
C         -5.94841       17.91022      -13.18862
O         -5.59598       18.15780      -12.05376
N         -6.21514       18.78403      -14.26168
C         -6.10003       20.22301      -14.10455
C         -4.68624       20.66175      -13.74034
C         -6.63595       18.08485      -15.40003
C         -6.98164       18.73215      -16.63775
C         -7.87619       18.27228      -17.52192
H         -0.06725        5.06930        9.93187
H         -0.22476        2.69154        8.93044
H         -0.48046        2.53063        7.18606
H         -2.66089        3.39070        9.15476
H         -2.48653        1.77062        8.44764
H         -2.86572        3.15926        7.41349
H          1.12109       10.21499        6.35377
H          1.31761       10.30224        8.09534
H         -1.35501       10.65159        6.64125
H         -0.37809       11.93478        7.37682
H         -1.13311       10.69694        8.39631
H          0.08596        9.14110        4.79809
H         -0.62640        6.24072        4.20227
H         -1.83360        5.93751        2.12509
H          0.26530        4.80753        2.34718
H          1.13819        6.01146        1.41879
H         -0.98097        4.08670        0.31803
H          0.70218        2.77350       -0.13529
H          0.98507        5.49330       -2.78234
H         -0.95474        5.16597       -1.69003
H         -0.75993        7.54452       -1.64249
H          0.51326        7.53788       -0.44273
H         -2.39482        6.72968        0.07949
H         -1.86901       10.56326        0.23582
H         -3.39347        8.47640       -1.42155
H         -3.41030       12.20031       -0.29025
H         -5.26800       11.99741       -5.44979
H         -4.00336       14.67793       -4.57067
H         -3.99338       13.10927       -7.76698
H         -6.25937       16.20842       -5.84958
H         -6.47449       16.15913      -10.90307
H         -4.43253       12.87206      -12.77819
H         -5.68489       12.63445      -14.36596
H         -6.33546       12.93911      -15.94898
H         -8.01413       12.58988      -13.41857
H         -7.82763       11.43800      -14.75179
H         -8.66611       12.97495      -15.02190
H         -6.79064       20.52872      -13.31084
H         -6.40471       20.74024      -15.01756
H         -4.38575       20.27991      -12.75953
H         -4.62614       21.75364      -13.69853
H         -3.95875       20.30185      -14.47497
H         -6.48521       19.67089      -16.86682
H         -8.41551       17.34022      -17.38084
H         -8.08824       18.82304      -18.43274
