92

C         -5.06044       -1.49591       -0.09503
N         -4.49674       -1.40584        1.16927
C         -4.49096       -2.48343        2.14438
C         -5.86742       -3.09836        2.36706
C         -3.91373       -0.14098        1.39446
O         -3.30731        0.28758        2.36128
C         -4.24066        0.58767        0.14871
C         -4.92634       -0.32722       -0.71319
C         -5.26954        0.37173       -1.95861
O         -5.80785       -0.11700       -2.92780
N         -4.83562        1.69141       -1.70037
C         -5.11766        2.76485       -2.63670
C         -6.57946        2.87310       -3.05613
C         -4.15499        1.77401       -0.46921
C         -3.55183        2.95509        0.09645
C         -3.01667        3.97358       -0.59290
C         -2.56703        5.18255        0.00709
S         -1.22261        5.96843       -0.74273
C         -1.23071        7.24260        0.37642
C         -2.23282        7.11108        1.31123
C         -3.05387        5.94001        1.06977
C         -4.28470        5.68673        1.94048
C         -3.92617        6.14454        3.37769
C         -3.54255        7.63217        3.43892
C         -2.43855        8.05152        2.46116
N         -5.47443        6.44336        1.50794
C         -6.56599        5.92761        0.80931
C         -6.84987        6.33442       -0.43915
C         -8.03660        6.25078       -1.33170
C         -7.97967        7.01261       -2.51512
C         -9.06341        7.09486       -3.39505
N         -8.83042        7.94231       -4.48179
C         -7.64216        8.48174       -4.43175
S         -6.67380        7.99033       -3.13843
C        -10.25786        6.36572       -3.12030
C        -10.32315        5.63108       -1.89555
C         -9.22335        5.56464       -1.00240
N         -9.43376        4.80998        0.15292
C        -10.64800        4.33338        0.17232
S        -11.61489        4.71645       -1.16395
C        -11.36375        6.42818       -4.16053
S        -12.82159        5.52190       -4.06980
C        -13.46105        6.07865       -5.56022
C        -14.80933        5.66594       -5.90675
O        -15.53638        4.93720       -5.23143
C        -12.57194        6.92111       -6.19534
C        -11.42080        7.14926       -5.35477
C        -12.73839        7.60386       -7.54590
S        -12.04427        9.13943       -7.85833
C        -13.37966        7.14886       -8.67778
O        -13.87590        5.89819       -8.82340
C        -13.42111        8.10935       -9.74651
N        -14.07219        7.79370      -10.91512
N        -14.81418        8.75818      -11.62566
C        -12.65918        9.24416       -9.47311
C        -12.30294       10.33652      -10.33283
C        -11.66708       11.45130       -9.94644
H         -5.54844       -2.38900       -0.46141
H         -4.11188       -2.09644        3.09480
H         -3.78813       -3.24843        1.79532
H         -6.60187       -2.33360        2.63881
H         -5.82849       -3.84081        3.17077
H         -6.22948       -3.60562        1.46676
H         -4.48397        2.60769       -3.51628
H         -4.87704        3.73366       -2.20440
H         -6.97065        1.94547       -3.47788
H         -6.68646        3.65216       -3.81825
H         -7.20510        3.14569       -2.20051
H         -3.50921        2.96418        1.18443
H         -2.89982        3.90013       -1.67028
H         -0.48910        8.02741        0.30681
H         -4.53121        4.62466        1.99089
H         -3.08303        5.54705        3.75137
H         -4.76993        5.96394        4.05366
H         -3.23060        7.88834        4.45894
H         -4.43479        8.23996        3.24391
H         -1.49114        8.13197        3.00968
H         -2.65920        9.05566        2.07649
H         -5.13849        7.29240        1.05245
H         -7.23495        5.32934        1.42081
H         -6.02561        6.88776       -0.87955
H         -7.29439        9.19039       -5.17126
H        -11.02494        3.73337        0.99154
H        -15.21071        6.05105       -6.85464
H        -10.62979        7.80850       -5.68018
H        -13.32807        5.26077       -8.33178
H        -14.52577        6.87025      -10.90526
H        -14.20698        9.33041      -12.21202
H        -15.30361        9.39238      -10.99052
H        -12.53722       10.24279      -11.38801
H        -11.36225       11.65068       -8.92519
H        -11.41922       12.21570      -10.67775
