100

C        -10.06218        8.75740        1.45600
N         -9.77029        7.40481        1.58134
C        -10.76296        6.35125        1.54118
C        -10.96699        5.80807        0.13700
C         -8.38787        7.17428        1.74042
O         -7.77593        6.13415        1.87492
C         -7.83463        8.54388        1.71472
C         -8.93313        9.45898        1.54493
C         -8.39216       10.82627        1.53186
O         -9.01909       11.85839        1.41286
N         -7.00650       10.60941        1.68913
C         -6.06313       11.70759        1.73337
C         -5.86514       12.23836        3.14413
C         -6.70386        9.24930        1.78867
C         -5.36839        8.74513        1.94077
C         -4.81539        7.87125        1.08332
C         -3.49815        7.33226        1.22385
C         -2.32605        7.96823        0.70645
C         -1.18395        7.23823        0.94966
S          0.43532        7.68877        0.42816
C          1.47493        6.92308        1.69680
S         -1.53856        5.80301        1.78740
C         -3.23691        6.09736        1.80540
C         -4.14735        5.15491        2.38654
C         -3.86945        3.84564        2.47977
C         -4.78157        2.90680        3.04392
S         -4.17236        1.45555        3.72449
C         -5.73935        0.86471        4.14571
C         -6.70715        1.76339        3.72321
C         -6.15788        2.93585        3.12111
C         -8.11987        1.54917        3.81953
N         -9.26737        1.37882        3.87721
C         -5.80987       -0.41068        4.79140
C         -6.78821       -0.72729        5.65563
C         -6.93679       -1.99146        6.32397
C         -6.49675       -3.24635        5.79565
C         -6.81979       -4.30419        6.61259
S         -6.49916       -6.00028        6.29239
C         -7.45112       -6.21814        4.76938
S         -7.58367       -3.78560        8.03903
C         -7.59408       -2.12812        7.54561
C         -8.16940       -1.10554        8.36790
C         -9.21654       -1.31098        9.18067
C         -9.81299       -0.27809        9.98059
N         -9.89334       -0.34963       11.37149
C         -9.28604       -1.36641       12.20569
C        -10.21266       -2.53952       12.46802
C        -10.54920        0.77427       11.91627
O        -10.78135        1.05325       13.07371
C        -10.86439        1.57333       10.71943
C        -10.36795        0.86639        9.57082
C        -10.65422        1.68439        8.38154
O        -10.37125        1.41843        7.23210
N        -11.29153        2.82408        8.92773
C        -11.80707        3.88495        8.08070
C        -11.17407        5.24586        8.32867
C        -11.41264        2.72096       10.31790
C        -11.98055        3.73543       11.15538
C        -12.99926        3.54657       12.00243
H        -11.06944        9.12311        1.31878
H        -11.70717        6.73978        1.93924
H        -10.43101        5.53919        2.19754
H        -11.26403        6.60228       -0.55571
H        -11.75004        5.04320        0.13664
H        -10.04693        5.35535       -0.24665
H         -6.45428       12.51702        1.10594
H         -5.10762       11.39496        1.29952
H         -6.81802       12.54168        3.59048
H         -5.20192       13.10907        3.13167
H         -5.41880       11.47870        3.79351
H         -4.80518        9.10294        2.79955
H         -5.38329        7.52356        0.22166
H         -2.32405        8.91135        0.17249
H          2.52484        7.13530        1.48071
H          1.35364        5.83618        1.71423
H          1.23282        7.33363        2.68118
H         -5.10035        5.54632        2.74210
H         -2.92647        3.44482        2.11567
H         -6.76029        3.74535        2.72211
H         -5.01328       -1.12448        4.58980
H         -7.54224        0.01560        5.90171
H         -5.99522       -3.37253        4.84418
H         -7.34632       -7.24931        4.42221
H         -7.08546       -5.55191        3.98321
H         -8.51098       -6.01646        4.94883
H         -7.74651       -0.10650        8.28694
H         -9.68239       -2.28908        9.26985
H         -9.01766       -0.90747       13.16456
H         -8.35277       -1.70674       11.74399
H        -11.10721       -2.21813       13.01087
H         -9.69932       -3.29460       13.07172
H        -10.53678       -3.01048       11.53515
H        -12.89451        3.93394        8.20710
H        -11.62342        3.61373        7.03400
H        -11.51439        5.68630        9.26785
H        -11.45827        5.94774        7.53882
H        -10.08255        5.17729        8.36124
H        -11.51356        4.71390       11.11939
H        -13.49468        2.58776       12.11290
H        -13.34930        4.36472       12.62479
