112

C          3.50167       -0.08660        1.79475
N          4.22279        1.02228        1.36971
C          5.59941        1.02641        0.91953
C          6.28646       -0.32953        0.95925
C          3.43562        2.20064        1.39909
O          3.72040        3.33766        1.08441
C          2.14479        1.70030        1.91615
C          2.26537        0.28323        2.11468
C          0.98394       -0.23232        2.61305
O          0.70708       -1.38946        2.85318
N          0.20919        0.93812        2.72288
C         -1.17637        0.91263        3.14812
C         -2.14445        0.78896        1.98154
C          0.91775        2.05943        2.29068
C          0.36556        3.37549        2.31011
C          0.25543        4.13764        1.21475
C         -0.31332        5.45757        1.22111
C         -0.44085        6.20424        0.10518
C         -1.06452        7.47798        0.46269
C         -1.26783        7.42307        1.91808
C         -0.83003        6.22799        2.34251
C         -1.80864        8.39475        2.79274
N         -2.24476        9.16225        3.53863
C         -1.37838        8.46360       -0.40236
C         -2.01052        9.72643       -0.04228
C         -2.16646       10.46581       -1.15895
C         -1.65768        9.69755       -2.28349
C         -1.18468        8.51687       -1.85524
C         -0.62337        7.54838       -2.72183
N         -0.17117        6.76329       -3.44093
C         -2.75910       11.75770       -1.13369
S         -3.62814       12.31505       -2.49607
C         -4.04220       13.81157       -1.76223
C         -3.54064       13.88934       -0.46108
C         -2.75003       12.72959       -0.14900
O         -2.07776       12.50628        1.01156
C         -1.39424       13.65513        1.50089
C         -2.26895       14.44784        2.46292
C         -3.70232       14.65578        1.97605
C         -3.78714       15.03310        0.49998
C         -4.80789       14.73842       -2.52700
C         -4.67864       16.07039       -2.36922
C         -5.59632       16.74904       -3.27851
C         -6.25158       15.68306       -4.04636
C         -5.77755       14.51052       -3.59145
C         -7.22002       15.78017       -5.07168
N         -8.03732       15.82535       -5.89462
C         -5.74818       18.08580       -3.34755
C         -6.63730       18.78924       -4.26092
C         -6.46464       20.12187       -4.11747
C         -5.48589       20.31138       -3.05489
C         -5.07064       19.12931       -2.57649
C         -4.16583       19.01217       -1.49684
N         -3.43391       18.92561       -0.59971
C         -7.19717       21.09544       -4.88672
N         -7.67633       22.31505       -4.40087
C         -7.57150       22.84768       -3.05880
C         -6.34923       23.73398       -2.86891
C         -8.40602       23.01409       -5.38310
O         -8.95274       24.09305       -5.27866
C         -8.36980       22.10580       -6.54895
C         -7.58102       20.96543       -6.16451
C         -7.51907       20.04570       -7.31478
O         -6.90398       19.00341       -7.39015
N         -8.33525       20.68628       -8.26851
C         -8.61241       20.06741       -9.55280
C         -7.58620       20.42953      -10.61402
C         -8.81343       21.91996       -7.79893
C         -9.66728       22.77331       -8.58753
C        -10.17238       23.95369       -8.20882
H          3.91588       -1.08112        1.84914
H          6.15009        1.74329        1.54036
H          5.61183        1.42278       -0.10254
H          6.34730       -0.70389        1.98715
H          7.30204       -0.26330        0.56068
H          5.73757       -1.06546        0.36157
H         -1.39738        1.81059        3.73473
H         -1.31272        0.05208        3.81246
H         -2.12132        1.68278        1.34982
H         -3.16722        0.66483        2.35193
H         -1.90119       -0.07290        1.35184
H          0.02529        3.72473        3.27980
H          0.59600        3.75762        0.25245
H         -0.12408        5.88279       -0.87254
H         -0.83993        5.88088        3.36490
H         -2.31918       10.03693        0.94148
H         -1.66576       10.04925       -3.30679
H         -1.01545       14.28125        0.68157
H         -0.50831       13.29959        2.03947
H         -1.79281       15.41674        2.65453
H         -2.31568       13.92543        3.42612
H         -4.15399       15.45425        2.57734
H         -4.29491       13.75211        2.16685
H         -3.07911       15.84261        0.28504
H         -4.79777       15.42355        0.33038
H         -3.99300       16.54122       -1.69091
H         -6.05802       13.53055       -3.95042
H         -7.32310       18.33094       -4.95458
H         -5.14339       21.26149       -2.68627
H         -7.59561       22.02935       -2.33341
H         -8.46124       23.45947       -2.86122
H         -5.42275       23.22643       -3.14328
H         -6.27092       24.04452       -1.82226
H         -6.40700       24.63149       -3.49179
H         -9.61982       20.33402       -9.88583
H         -8.61086       18.97836       -9.42051
H         -7.52416       21.51298      -10.75404
H         -7.85889       19.97642      -11.57310
H         -6.58995       20.06704      -10.34016
H         -9.93366       22.43389       -9.58416
H         -9.97966       24.40339       -7.24424
H        -10.81485       24.52590       -8.86834
