128

C          1.05275       -1.14109        3.11602
N          1.93066       -0.22325        2.55387
C          3.25183       -0.55953        2.06275
C          3.23953       -0.96554        0.59746
C          1.36324        1.06729        2.47156
O          1.82414        2.09730        2.02441
C          0.02140        0.86392        3.05795
C         -0.08351       -0.52256        3.43520
C         -1.41672       -0.74231        4.01684
O         -1.86393       -1.79191        4.43075
N         -1.99595        0.54232        3.94671
C         -3.36651        0.79463        4.35175
C         -4.36414        0.55770        3.22786
C         -1.12836        1.47201        3.36130
C         -1.47616        2.85601        3.15855
C         -1.49360        3.44823        1.95590
C         -1.86499        4.82362        1.73164
N         -1.09617        5.72722        0.99708
C          0.10327        5.40903        0.26088
C         -1.71580        6.99291        0.89743
O         -1.33711        8.00919        0.35365
C         -3.00220        6.77482        1.57771
C         -3.01181        5.42079        2.06860
C         -4.32456        5.15871        2.67194
O         -4.71323        4.11949        3.16511
N         -5.00052        6.37865        2.47037
C         -6.39836        6.50927        2.78787
C         -4.18703        7.32298        1.84645
C         -4.60467        8.60321        1.44127
N         -4.37660        9.71657        2.21907
C         -3.62952        9.84310        3.45778
C         -4.50883        9.67760        4.68387
N         -4.95026       10.83041        1.73010
C         -5.49046       10.44702        0.57180
C         -5.27514        9.06422        0.31663
C         -5.70459        8.29571       -0.89041
C         -7.08109        7.66822       -0.74051
C         -6.25337       11.43700       -0.23810
C         -5.37310       12.24209       -1.19293
C         -6.22444       13.22169       -1.94752
C         -6.40444       13.26398       -3.27036
C         -7.17338       14.26443       -3.94002
S         -7.82846       13.83653       -5.48249
C         -8.39096       15.43467       -5.78712
C         -7.76192       16.28911       -4.89810
C         -7.56375       15.57230       -3.64524
C         -7.57147       16.33621       -2.33240
N         -8.57598       15.76137       -1.31516
O         -8.11686       15.24595       -0.28785
O         -9.78577       15.90688       -1.54507
C         -8.03534       17.80078       -2.55418
C         -7.26747       18.47852       -3.68575
C         -7.52177       17.78219       -5.04004
N         -6.29197       18.07709       -5.91114
O         -5.31720       17.31426       -5.82510
O         -6.32551       19.11110       -6.59311
C         -9.32848       15.61054       -6.84693
C        -10.23902       16.59654       -6.83238
C        -11.38816       16.55987       -7.71916
C        -11.89613       17.57762       -8.42854
C        -13.10744       17.65866       -9.28520
C        -13.87436       16.63273       -9.74058
C        -14.98183       16.82727      -10.61572
N        -15.89275       16.96497      -11.32703
C        -13.62734       15.26310       -9.42167
N        -13.43541       14.14248       -9.16519
C        -13.26455       19.10813       -9.64791
C        -12.14483       19.81197       -9.18563
C        -11.25176       18.93645       -8.42413
O        -10.22159       19.28840       -7.88610
C        -11.94127       21.16900       -9.38946
C        -12.91846       21.88662      -10.08138
C        -14.09410       21.22090      -10.52506
C        -14.25734       19.83461      -10.29627
C        -15.07799       21.96570      -11.19324
C        -14.90473       23.33047      -11.43489
C        -13.74466       23.97309      -11.01137
C        -12.75815       23.25627      -10.33559
H          1.30843       -2.18301        3.24370
H          3.66002       -1.37220        2.67454
H          3.90111        0.31392        2.18867
H          2.60119       -1.84004        0.43391
H          4.25221       -1.21754        0.26624
H          2.86550       -0.15419       -0.03542
H         -3.45316        1.81819        4.72747
H         -3.60613        0.12222        5.18403
H         -4.11798        1.15282        2.34314
H         -5.37076        0.83504        3.55636
H         -4.38514       -0.49565        2.92773
H         -1.74358        3.40881        4.05861
H         -1.25055        2.87426        1.06477
H         -0.08116        4.52621       -0.35946
H          0.93062        5.22278        0.94914
H          0.36603        6.23753       -0.40473
H         -6.91321        5.58678        2.49680
H         -6.86184        7.35012        2.26927
H         -6.50315        6.63242        3.86810
H         -3.16879       10.83923        3.46100
H         -2.81603        9.11303        3.45032
H         -5.25708       10.47590        4.74256
H         -3.90110        9.71729        5.59301
H         -5.04158        8.72231        4.66738
H         -4.97106        7.51282       -1.11584
H         -5.71108        8.96362       -1.76070
H         -7.03948        6.79211       -0.08664
H         -7.45422        7.33449       -1.71420
H         -7.80694        8.37160       -0.31914
H         -6.77960       12.11957        0.44439
H         -7.03623       10.92000       -0.80570
H         -4.81753       11.58604       -1.87217
H         -4.62841       12.81698       -0.62616
H         -6.71667       13.91363       -1.29515
H         -5.90783       12.51411       -3.88534
H         -6.57999       16.31736       -1.86549
H         -7.93114       18.37063       -1.62351
H         -9.10243       17.84070       -2.82069
H         -6.20293       18.50294       -3.41987
H         -7.58826       19.52591       -3.75964
H         -8.35502       18.26872       -5.55272
H         -9.41444       14.82096       -7.58245
H        -10.24387       17.38833       -6.08887
H        -11.86572       15.58643       -7.70375
H        -11.04230       21.64724       -9.00887
H        -15.17928       19.37500      -10.63678
H        -15.99301       21.48811      -11.54024
H        -15.67480       23.89092      -11.95875
H        -13.60754       25.03385      -11.20736
H        -11.85928       23.77820      -10.01140
