98

C         -2.88031       -1.00017        2.57163
N         -3.61406       -0.42296        1.54213
C         -4.31292       -1.16151        0.51213
C         -5.40551       -2.05736        1.07469
C         -3.59672        0.98485        1.60803
O         -4.10819        1.81175        0.88201
C         -2.77809        1.23278        2.81145
C         -2.39533       -0.04174        3.35797
C         -1.57615        0.22170        4.55649
O         -1.03695       -0.62273        5.25210
N         -1.57071        1.63450        4.63907
C         -0.73168        2.28705        5.62479
C         -1.30153        3.52420        6.29785
C         -2.24892        2.20801        3.55289
C         -2.36484        3.60884        3.25825
C         -1.91576        4.12370        2.09793
C         -2.21083        5.46202        1.56977
C         -2.71117        6.52234        2.29171
N         -3.13978        7.67824        1.73907
C         -3.00994        7.80356        0.39943
N         -2.39391        6.90533       -0.38037
C         -2.04801        5.74132        0.22308
C         -3.61718        8.99477       -0.22211
S         -3.46427       10.44924        0.70974
C         -4.17034       11.46791       -0.47194
C         -4.55533       10.72032       -1.57582
C         -4.30275        9.25051       -1.41108
C         -4.69506        8.32136       -2.42352
C         -4.64749        6.85657       -2.45291
C         -4.93515        5.99090       -1.47476
C         -5.23341        8.94539       -3.57824
C         -5.43285       10.33940       -3.72903
C         -5.13593       11.30057       -2.73599
C         -5.42071       12.74500       -3.03254
C         -4.21374       12.86634       -0.16278
C         -5.29299       13.40127        0.43218
C         -5.45408       14.81351        0.77972
N         -5.83204       15.63261       -0.21841
C         -6.24852       16.85719        0.15072
C         -6.29775       17.28098        1.45868
C         -5.87347       16.37365        2.41043
N         -5.45394       15.12991        2.08862
C         -5.97221       16.73384        3.83741
C         -5.46946       16.02320        4.86081
C         -5.74732       16.39564        6.25887
C         -6.95471       15.90773        6.79886
C         -7.32883       16.15820        8.12774
C         -8.58974       15.55052        8.69014
N         -9.55953       16.55642        9.10544
C         -6.48191       16.94012        8.91805
C         -5.28971       17.44851        8.39188
C         -4.89103       17.17056        7.06696
C         -3.54948       17.69130        6.59808
N         -3.63898       19.03758        6.06310
C         -3.84086       19.36465        4.75436
C         -3.94945       20.58773        4.23572
H         -2.75874       -2.06777        2.67017
H         -3.57650       -1.75607       -0.03923
H         -4.75929       -0.45219       -0.19381
H         -4.98698       -2.83251        1.72489
H         -5.94565       -2.55451        0.26329
H         -6.12380       -1.47816        1.66427
H          0.22471        2.51921        5.14452
H         -0.51294        1.55561        6.41243
H         -1.29269        4.38805        5.62775
H         -0.68528        3.79036        7.16295
H         -2.32643        3.36045        6.64544
H         -2.95301        4.19401        3.96349
H         -1.37475        3.47313        1.41366
H         -2.82312        6.48256        3.37175
H         -1.66658        4.98834       -0.46496
H         -4.45027        6.43334       -3.43820
H         -5.18430        6.29890       -0.46757
H         -4.88116        4.92215       -1.66604
H         -5.54118        8.31901       -4.41787
H         -5.85631       10.67660       -4.67631
H         -5.97989       12.85406       -3.96956
H         -4.48606       13.30278       -3.13900
H         -6.04220       13.19013       -2.25350
H         -3.33607       13.46600       -0.38815
H         -6.16352       12.80042        0.67088
H         -6.58890       17.49827       -0.65648
H         -6.67129       18.26377        1.71506
H         -6.51654       17.65137        4.05478
H         -4.92089       15.09895        4.70369
H         -7.60952       15.30579        6.16949
H         -8.32969       14.90625        9.53831
H         -9.06423       14.90561        7.94166
H         -9.16417       17.11423        9.85873
H        -10.37449       16.08765        9.49577
H         -6.73758       17.15364        9.95179
H         -4.65402       18.05444        9.03529
H         -3.09052       17.00664        5.87606
H         -2.86018       17.70874        7.45264
H         -3.45565       19.80076        6.70687
H         -3.91256       18.50163        4.09757
H         -3.88711       21.47812        4.84898
H         -4.11557       20.71387        3.17103
