82

C         -2.86012       -1.69774       -2.70996
N         -3.36502       -0.84354       -3.68359
C         -3.71078       -1.25515       -5.02917
C         -2.51766       -1.80059       -5.79815
C         -3.54914        0.46668       -3.19192
O         -3.97143        1.46159       -3.74236
C         -3.09038        0.34720       -1.79332
C         -2.68085       -1.01676       -1.57866
C         -2.21902       -1.14612       -0.18953
O         -1.78119       -2.14461        0.34447
N         -2.40089        0.15895        0.31473
C         -2.05791        0.50977        1.67846
C         -3.20912        0.27473        2.64265
C         -2.91658        1.02353       -0.65644
C         -3.18431        2.41130       -0.40112
C         -2.61693        3.40896       -1.09712
C         -2.82833        4.81135       -0.75763
C         -2.02104        5.46863        0.14784
N         -2.18888        6.75828        0.51450
C         -3.22038        7.41267       -0.04519
N         -4.05311        6.87791       -0.95561
C         -3.83450        5.58629       -1.29576
C         -3.47601        8.76411        0.39840
C         -3.17572        9.44707        1.72949
N         -3.45980       10.74127        1.77301
C         -3.98437       10.99360        0.51223
C         -4.51405       11.79774       -0.41451
S         -4.63982       10.52690       -1.62643
C         -3.98387        9.80025       -0.25268
C         -2.61904        8.76305        2.89863
C         -1.81915        9.45407        3.78229
N         -1.26353        8.90251        4.88428
C         -1.54228        7.60827        5.11637
N         -2.33432        6.85628        4.33608
C         -2.87758        7.45844        3.25736
C         -0.92772        6.96286        6.27780
N          0.31168        7.29305        6.84177
C          1.22925        8.32193        6.39855
C          0.98794        9.65393        7.09061
C          0.61368        6.48236        7.94632
O          1.59478        6.52390        8.65724
C         -0.54826        5.56845        8.02386
C         -1.45398        5.93939        6.96383
C         -2.62869        5.05195        7.03483
O         -3.62092        5.05491        6.33687
N         -2.31540        4.21658        8.12887
C         -3.23163        3.17367        8.55081
C         -2.99206        1.85689        7.82780
C         -1.06870        4.53323        8.69628
C         -0.51478        3.81633        9.81887
C          0.64970        4.07298       10.42882
H         -2.65902       -2.74150       -2.90021
H         -4.13164       -0.39948       -5.56832
H         -4.49539       -2.01690       -4.95703
H         -1.71810       -1.05547       -5.86014
H         -2.81328       -2.07771       -6.81458
H         -2.10637       -2.69245       -5.31407
H         -1.73243        1.55427        1.71904
H         -1.20490       -0.10636        1.98705
H         -4.08774        0.86388        2.36178
H         -2.91600        0.56149        3.65759
H         -3.50442       -0.77972        2.65817
H         -3.85484        2.62205        0.43067
H         -1.92737        3.21631       -1.91627
H         -1.18931        4.96316        0.63274
H         -4.52376        5.18621       -2.03606
H         -4.76071       12.85614       -0.41454
H         -1.58561       10.50591        3.63238
H         -3.55253        6.82350        2.69591
H          1.18932        8.41700        5.30954
H          2.24852        7.99444        6.63994
H         -0.02721       10.02187        6.91883
H          1.69165       10.40504        6.71890
H          1.12536        9.56418        8.17324
H         -4.25405        3.50558        8.33137
H         -3.17656        3.03956        9.63507
H         -3.19042        1.95609        6.75514
H         -3.65827        1.08228        8.22239
H         -1.95971        1.51475        7.94792
H         -1.08852        2.98342       10.21350
H          1.31796        4.87021       10.13133
H          0.98755        3.48038       11.27159
