106

C         -1.53385       -1.91825        0.79522
N         -2.81609       -1.50497        0.45201
C         -3.86485       -2.39355       -0.00320
C         -4.67263       -2.98340        1.14071
C         -2.96875       -0.10782        0.56843
O         -3.93249        0.59559        0.34561
C         -1.62707        0.32020        1.01223
C         -0.80315       -0.85469        1.12938
C          0.54007       -0.42945        1.55985
O          1.50807       -1.13978        1.73637
N          0.39403        0.96674        1.68889
C          1.49009        1.83300        2.08069
C          2.29789        2.33473        0.89427
C         -0.89007        1.38439        1.33302
C         -1.28309        2.76129        1.33403
C         -1.78267        3.38368        0.25605
C         -2.14443        4.79894        0.26052
C         -3.11455        5.28832       -0.59768
N         -3.47786        6.59287       -0.62915
C         -2.83360        7.43466        0.21354
C         -1.84613        6.93321        1.06082
N         -1.48574        5.62114        1.10730
C         -3.24846        8.84818        0.17655
N         -3.82919        9.51235       -0.92614
C         -4.08991        8.97644       -2.25123
C         -2.95348        9.22588       -3.22942
C         -4.17514       10.84500       -0.61156
O         -4.69350       11.70290       -1.29633
C         -3.77579       10.96319        0.79751
C         -3.21634        9.70287        1.20938
C         -2.85969        9.82808        2.63506
O         -2.37672        8.97328        3.34789
N         -3.22449       11.15178        2.94336
C         -3.07569       11.68106        4.28464
C         -1.69658       12.27396        4.52857
C         -3.76338       11.80426        1.83304
C         -4.27306       13.14443        1.85786
C         -3.52383       14.22646        2.11269
C         -4.03296       15.56474        2.16335
N         -5.03116       16.01027        3.03608
C         -5.65278       15.25543        4.10634
C         -4.87696       15.35393        5.41158
C         -5.27545       17.39176        2.87653
O         -6.02771       18.13143        3.47758
C         -4.34639       17.76031        1.79956
C         -3.60299       16.59187        1.42562
C         -2.63985       16.98066        0.38002
O         -1.83277       16.26669       -0.17793
N         -2.88791       18.36141        0.23203
C         -2.17074       19.18152       -0.72645
C         -2.84428       19.19768       -2.08926
C         -3.91234       18.79343        1.07444
C         -4.32622       20.15969        1.16560
C         -5.59387       20.58079        1.03523
C         -6.04803       21.96239        1.13454
C         -7.32529       22.39873        0.99002
C         -7.55059       23.84156        1.13714
C         -8.66382       24.58854        0.96255
C         -9.91313       24.05534        0.54156
N        -10.93638       23.64575        0.18534
C         -8.65681       26.00040        1.16601
N         -8.64707       27.15048        1.32488
S         -6.02719       24.59044        1.58882
C         -5.12979       23.10467        1.42271
O         -3.91703       23.06111        1.51694
C         -8.38338       21.47595        0.73232
N         -9.21627       20.69854        0.52031
H         -1.23201       -2.95477        0.76098
H         -3.40943       -3.19349       -0.59736
H         -4.53578       -1.83070       -0.66200
H         -4.02799       -3.49302        1.86393
H         -5.39492       -3.71073        0.75542
H         -5.22688       -2.20424        1.67390
H          2.15253        1.26567        2.74405
H          1.10182        2.67618        2.66143
H          2.76226        1.50330        0.35439
H          3.09378        3.00405        1.23728
H          1.67161        2.88688        0.18644
H         -1.14121        3.30781        2.26446
H         -1.94076        2.84982       -0.67689
H         -3.64752        4.64306       -1.28754
H         -1.28664        7.56375        1.74286
H         -4.99246        9.46285       -2.63985
H         -4.33089        7.91544       -2.21615
H         -2.82201       10.29718       -3.41288
H         -3.17453        8.74619       -4.18926
H         -2.00537        8.82526       -2.85810
H         -3.22150       10.85537        4.99175
H         -3.86247       12.41377        4.48897
H         -0.91105       11.53242        4.35260
H         -1.61266       12.62785        5.56054
H         -1.49500       13.12139        3.87076
H         -5.33124       13.25366        1.62496
H         -2.44752       14.13277        2.23385
H         -5.77261       14.20950        3.81497
H         -6.65978       15.65781        4.26579
H         -3.85208       14.98721        5.29583
H         -5.36703       14.75844        6.18867
H         -4.82411       16.39026        5.76117
H         -1.15832       18.77701       -0.83380
H         -2.06948       20.20141       -0.34162
H         -2.91964       18.18707       -2.50340
H         -2.26746       19.81137       -2.78859
H         -3.85618       19.61133       -2.02820
H         -3.50753       20.84702        1.35923
H         -6.35546       19.82336        0.83813
