83

C          4.36944        3.99930        6.69522
N          4.93441        4.93941        5.84300
C          6.19739        5.60386        6.08885
C          7.22713        5.31442        5.00840
C          4.08779        5.23670        4.75387
O          4.21409        6.04828        3.86051
C          2.94644        4.32810        4.98152
C          3.18772        3.62286        6.21003
C          2.02736        2.76483        6.47880
O          1.84400        2.09028        7.46794
N          1.21688        2.97661        5.33832
C         -0.10731        2.38868        5.23299
C         -0.07192        0.86803        5.19333
C          1.77275        3.92866        4.48622
C          1.14458        4.39173        3.28180
C          0.90436        5.69272        3.05989
C          0.33116        6.15687        1.84810
S         -0.00764        7.83695        1.69025
C         -0.48757        7.54705        0.05439
N         -0.47601        6.26345       -0.25090
N          0.00786        5.46777        0.77129
C         -0.91117        8.60599       -0.80147
C         -0.46891        9.86840       -0.66720
C         -0.94322       11.00618       -1.46007
C         -1.25480       10.91899       -2.81876
C         -1.75490       12.04124       -3.51991
N         -2.04302       11.85374       -4.95444
O         -2.03440       10.69160       -5.38901
O         -2.26237       12.84601       -5.65934
C         -1.94782       13.27283       -2.85959
C         -1.57810       13.34320       -1.50063
C         -1.06983       12.23747       -0.81827
C         -2.62949       14.45866       -3.42194
C         -2.22160       15.71419       -3.17710
C         -2.97424       16.86934       -3.54700
S         -2.88037       18.21610       -2.45955
C         -3.93239       19.15088       -3.39920
C         -4.34644       18.47674       -4.52300
C         -3.80670       17.15755       -4.62747
O         -3.97673       16.21290       -5.59266
C         -4.78172       16.24931       -6.70634
C         -5.50629       17.25098       -7.22307
C         -6.33255       17.23411       -8.43149
C         -6.51251       18.45422       -9.09401
C         -7.32712       18.52304      -10.23040
N         -7.47056       19.83000      -10.84675
O         -7.96677       20.72538      -10.14893
O         -7.05687       19.96568      -12.00400
C         -7.97794       17.39315      -10.74560
C         -7.83550       16.19355      -10.02388
C         -7.02040       16.11047       -8.88559
C         -8.82163       17.42918      -11.95248
C         -8.91871       16.41115      -12.81729
H          4.85273        3.67350        7.60454
H          6.58826        5.28452        7.06198
H          6.00723        6.68170        6.13617
H          7.40680        4.23855        4.91399
H          8.17635        5.80322        5.24869
H          6.89622        5.68467        4.03289
H         -0.62338        2.76043        4.34212
H         -0.68034        2.71516        6.10803
H          0.40898        0.51404        4.27613
H         -1.08882        0.46541        5.22855
H          0.48053        0.44942        6.03990
H          0.87815        3.63838        2.54171
H          1.16947        6.43066        3.81353
H         -1.62003        8.33233       -1.57735
H          0.25276       10.13207        0.10381
H         -1.11076        9.96974       -3.33334
H         -1.71374       14.26252       -0.93109
H         -0.81325       12.34642        0.23480
H         -3.53641       14.26105       -3.98819
H         -1.32279       15.88708       -2.58876
H         -4.20599       20.15365       -3.10406
H         -5.00859       18.98311       -5.19717
H         -4.72233       15.27261       -7.17912
H         -5.51246       18.21964       -6.76915
H         -6.01818       19.35496       -8.72989
H         -8.37200       15.29697      -10.33122
H         -6.95235       15.16196       -8.35653
H         -9.35389       18.35319      -12.16943
H         -8.38506       15.47522      -12.68573
H         -9.53041       16.50454      -13.70956
