127

C         -2.38627       -0.91537       -4.42416
N         -2.77035        0.07932       -5.31335
C         -3.00657       -0.14003       -6.72403
C         -4.44690       -0.53106       -7.00964
C         -2.96003        1.32318       -4.67141
O         -3.32656        2.38591       -5.11739
C         -2.61798        1.00579       -3.26682
C         -2.28111       -0.39281       -3.20321
C         -1.95587       -0.72525       -1.81036
O         -1.64265       -1.81480       -1.37642
N         -2.12220        0.51130       -1.15307
C         -1.96750        0.63543        0.28239
C         -0.54107        0.96732        0.68554
C         -2.50768        1.52058       -2.04009
C         -2.73809        2.87846       -1.63538
C         -3.90926        3.50996       -1.80965
C         -4.15012        4.86862       -1.41632
N         -4.60430        5.84644       -2.30128
C         -4.98838        5.65468       -3.68434
C         -6.47970        5.37725       -3.79779
C         -4.80915        7.07974       -1.65722
O         -5.22775        8.12555       -2.11025
C         -4.42552        6.78773       -0.26466
C         -4.03809        5.40435       -0.19572
C         -3.70145        5.10378        1.20625
O         -3.32881        4.04070        1.65991
N         -3.92839        6.34034        1.85478
C         -3.71640        6.51342        3.27756
C         -2.29887        6.95385        3.60368
C         -4.33411        7.33407        0.95169
C         -4.65903        8.67949        1.33407
C         -4.49573        9.73517        0.52139
C         -4.88566       11.05507        0.89319
S         -5.33593       12.16008       -0.33053
C         -5.69188       13.42415        0.78621
C         -5.41893       13.01247        2.08366
C         -4.96106       11.65110        2.13228
C         -5.56916       13.84337        3.26854
O         -5.79430       13.38473        4.38436
C         -6.19169       14.65141        0.25450
C         -7.04387       15.42552        0.94398
C         -7.52752       16.69138        0.48205
N         -8.87484       17.04936        0.46426
C        -10.00037       16.24290        0.89332
C        -10.54594       15.34199       -0.20077
C         -9.04794       18.37963        0.03731
O        -10.06870       19.02411       -0.09584
C         -7.66312       18.84134       -0.15755
C         -6.78516       17.74311        0.12540
C         -5.39997       18.21909       -0.00884
O         -4.38498       17.58793        0.20212
N         -5.57265       19.56803       -0.38285
C         -4.43913       20.45604       -0.54859
C         -3.86186       20.40942       -1.95432
C         -6.92558       19.91630       -0.44223
C         -7.40299       21.23023       -0.75832
C         -8.52256       21.76755       -0.24604
C         -9.00946       23.06519       -0.59696
N         -9.34018       23.44810       -1.89336
C         -9.36989       22.60942       -3.07490
C        -10.72029       21.94746       -3.29562
C         -9.79106       24.77800       -1.93604
O        -10.18246       25.39974       -2.90287
C         -9.68454       25.21936       -0.52469
C         -9.21411       24.08917        0.23459
C         -9.11443       24.49094        1.64813
O         -8.76804       23.80278        2.58328
N         -9.51519       25.84521        1.61284
C         -9.58906       26.64065        2.82461
C        -10.94499       26.54484        3.51070
C         -9.85361       26.25312        0.30915
C        -10.29677       27.58843       -0.00195
C        -10.62744       28.04069       -1.21779
H         -2.21586       -1.93638       -4.73291
H         -2.32321       -0.91959       -7.07925
H         -2.76991        0.78454       -7.26200
H         -4.72312       -1.44390       -6.47166
H         -4.58584       -0.71014       -8.08043
H         -5.13781        0.26067       -6.70227
H         -2.24014       -0.32626        0.73396
H         -2.66817        1.38105        0.67103
H          0.16252        0.22312        0.29779
H         -0.45140        0.98395        1.77649
H         -0.23921        1.94672        0.30236
H         -1.89684        3.38934       -1.17101
H         -4.74506        2.99668       -2.28006
H         -4.40027        4.84971       -4.13409
H         -4.75875        6.57547       -4.23460
H         -6.75410        4.47613       -3.24017
H         -6.76833        5.24112       -4.84346
H         -7.06540        6.20808       -3.38808
H         -3.91916        5.55881        3.77649
H         -4.43768        7.23427        3.67496
H         -1.56709        6.20766        3.27756
H         -2.18599        7.09231        4.68375
H         -2.05485        7.90069        3.11149
H         -5.09787        8.82136        2.31927
H         -4.10477        9.60474       -0.48329
H         -4.67861       11.16129        3.05395
H         -5.48188       14.93190        3.11913
H         -5.88318       14.93694       -0.75109
H         -7.40621       15.14356        1.92616
H        -10.80030       16.91873        1.22022
H         -9.71055       15.65186        1.76736
H        -10.89643       15.92199       -1.06084
H        -11.39176       14.76121        0.18236
H         -9.78308       14.64130       -0.55193
H         -3.65994       20.14353        0.15674
H         -4.72137       21.47922       -0.28052
H         -3.54452       19.39529       -2.21909
H         -2.98844       21.06616       -2.02475
H         -4.59617       20.73620       -2.69714
H         -6.81150       21.80369       -1.46772
H         -9.12402       21.24011        0.49217
H         -8.58634       21.85198       -3.02322
H         -9.14030       23.23861       -3.94307
H        -11.00427       21.32614       -2.44060
H        -10.68108       21.30896       -4.18419
H        -11.50800       22.69248       -3.44831
H         -9.35033       27.68502        2.60350
H         -8.81801       26.28693        3.52058
H        -11.73842       26.94457        2.87154
H        -10.93959       27.12062        4.44252
H        -11.20004       25.50817        3.75436
H        -10.37404       28.29850        0.81552
H        -10.59033       27.43132       -2.11024
H        -10.96026       29.06048       -1.36950
