130

C          3.91669        0.47763        3.15315
N          3.79675        0.86014        1.81965
C          4.40544        0.13605        0.71829
C          4.77898        1.02529       -0.45927
C          2.89942        1.93793        1.66751
O          2.44958        2.46511        0.67132
C          2.54865        2.25937        3.05666
C          3.19457        1.30452        3.91302
C          2.79447        1.60195        5.29080
O          3.10629        0.97921        6.29394
N          1.95910        2.72759        5.14369
C          1.24188        3.29305        6.26761
C          2.04947        4.33432        7.02195
C          1.83720        3.10221        3.80500
C          1.05783        4.22107        3.35736
C          0.09025        4.12785        2.43078
C         -0.70687        5.25007        1.97656
C         -0.25460        6.34712        1.32237
N          1.11639        6.55718        0.90207
O          1.50771        7.73046        0.86486
O          1.80801        5.57824        0.59988
C         -1.27485        7.36592        1.20441
C         -2.39676        6.92838        1.80766
C         -2.13843        5.57822        2.32415
C         -3.03733        4.79620        2.97249
C         -2.84600        3.36860        3.23583
C         -3.92755        2.90343        3.87035
C         -4.85786        3.99406        4.04539
N         -6.03572        3.83761        4.87798
O         -5.92262        3.06719        5.84944
O         -7.07636        4.42887        4.58938
C         -4.39156        5.15654        3.52096
C         -4.93577        6.48144        3.75300
C         -6.20089        6.83902        3.49396
C         -6.79868        8.10393        3.85293
C         -7.34706        8.97495        2.96640
N         -7.33916        8.82601        1.52035
O         -7.99101        9.66022        0.87528
O         -6.67318        7.91900        1.00406
C         -7.92568       10.11702        3.62899
C         -7.71760       10.00097        4.94793
C         -6.96963        8.76583        5.20554
C         -6.53914        8.36556        6.43021
C         -5.99474        7.04151        6.74001
C         -5.66129        6.98860        8.03603
C         -5.95679        8.26803        8.62002
N         -5.61755        8.60899        9.98447
O         -6.33385        9.41659       10.59162
O         -4.63029        8.03997       10.47027
C         -6.48552        9.12971        7.72268
C         -6.64514       10.53523        8.00818
C         -7.80491       11.19643        8.11247
C         -7.88133       12.59478        8.48208
C         -7.32746       13.66469        7.85048
N         -6.48644       13.64726        6.66160
O         -6.31652       14.73215        6.09154
O         -5.97145       12.59012        6.28315
C         -7.73703       14.91432        8.45220
C         -8.58615       14.65237        9.45092
C         -8.75496       13.20431        9.55426
C         -9.50358       12.60172       10.50964
C         -9.41899       11.18611       10.87321
C        -10.17780       10.99263       11.96991
C        -10.82356       12.24071       12.30709
N        -11.78684       12.35962       13.38340
O        -11.65305       11.57282       14.33227
O        -12.68233       13.20894       13.29996
C        -10.48295       13.23497       11.45571
C        -11.05551       14.56998       11.44833
C        -11.69612       15.09420       10.38765
C        -12.39919       16.35035       10.39496
N        -11.88358       17.58781       10.79928
C        -10.52298       17.90189       11.18555
C         -9.89720       18.97233       10.29745
C        -12.86902       18.60152       10.72664
O        -12.79867       19.78477       10.99152
C        -14.03279       17.89140       10.19144
C        -13.66490       16.51744        9.99977
C        -14.83543       15.81419        9.44978
O        -14.89496       14.64544        9.11651
N        -15.80480       16.83769        9.36631
C        -17.11539       16.60756        8.79397
C        -18.13313       16.14050        9.82163
C        -15.30296       18.05893        9.82426
C        -16.03754       19.29249        9.84954
C        -17.14627       19.50068       10.57022
H          4.51062       -0.36707        3.46479
H          3.70712       -0.64447        0.39791
H          5.31396       -0.35251        1.09017
H          3.89623        1.48300       -0.91460
H          5.27357        0.44447       -1.24183
H          5.44912        1.83028       -0.14018
H          1.00343        2.47308        6.95560
H          0.28918        3.71279        5.92878
H          3.01512        3.93205        7.34473
H          1.50146        4.65795        7.91293
H          2.24055        5.21465        6.40063
H          1.32214        5.18305        3.79181
H         -0.13513        3.16847        1.96879
H         -1.13393        8.30955        0.69872
H         -3.32809        7.46855        1.82822
H         -2.02666        2.74259        2.93038
H         -4.09998        1.89170        4.20070
H         -4.26128        7.19466        4.22669
H         -6.86984        6.15501        2.96464
H         -8.47313       10.90393        3.13203
H         -8.11669       10.68501        5.66901
H         -5.91805        6.20328        6.08283
H         -5.24959        6.14455        8.56958
H         -5.70902       11.05203        8.22955
H         -8.75050       10.67828        7.96468
H         -7.37882       15.88871        8.15596
H         -8.97892       15.39755       10.11513
H         -8.79467       10.43170       10.43288
H        -10.29378       10.07068       12.51645
H        -11.04202       15.11080       12.39417
H        -11.80371       14.50383        9.47832
H         -9.89586       17.01149       11.14436
H        -10.53637       18.24520       12.22492
H         -9.92628       18.67613        9.24376
H         -8.85647       19.15095       10.58242
H        -10.42454       19.92679       10.38704
H        -17.01675       15.82725        8.03005
H        -17.46007       17.51167        8.28083
H        -17.80217       15.22357       10.31794
H        -19.09624       15.94931        9.33941
H        -18.30071       16.88484       10.60115
H        -15.61616       20.11983        9.28115
H        -17.56797       18.73804       11.21364
H        -17.64770       20.46269       10.55733
