108

C          3.91116       -0.08261       -2.53559
N          4.35500        0.87753       -3.43515
C          5.48663        0.71212       -4.31801
C          5.09883        0.10968       -5.65772
C          3.57932        2.05022       -3.38071
O          3.67630        3.07659       -4.02252
C          2.59168        1.72527       -2.32863
C          2.86739        0.39641       -1.85998
C          1.89680        0.06981       -0.80345
O          1.82717       -0.97684       -0.19334
N          1.12461        1.25229       -0.71234
C         -0.02657        1.38205        0.17310
C          0.31645        1.24873        1.65051
C          1.54707        2.20350       -1.65004
C          0.96117        3.50433       -1.78519
C          0.88431        4.19452       -2.93351
C          0.29391        5.50031       -3.06487
C         -0.28076        6.20077       -2.06455
C         -0.78594        7.46163       -2.59497
C         -0.46071        7.44321       -4.02723
C          0.18665        6.28990       -4.28196
C         -0.74501        8.40559       -5.01492
N         -0.98632        9.19835       -5.83464
C         -1.40476        8.41026       -1.86305
C         -1.93201        9.66728       -2.38791
C         -2.44699       10.38340       -1.36828
C         -2.28357        9.60790       -0.14645
C         -1.68212        8.43709       -0.41925
C         -1.38594        7.46918        0.56361
N         -1.15543        6.67404        1.38455
C         -3.04581       11.67803       -1.44553
C         -3.03753       12.63307       -0.38486
C         -3.71511       13.80215       -0.67002
S         -4.39270       13.77577       -2.24357
C         -3.69394       12.15623       -2.60051
C         -3.89352       14.93341        0.21213
C         -4.94727       15.82564        0.25306
C         -4.81112       16.78871        1.29772
C         -3.64629       16.62798        2.02374
S         -2.72933       15.31600        1.41203
C         -3.18690       17.40101        3.15613
S         -4.29905       18.14152        4.22975
C         -2.98448       18.81953        5.24765
C         -1.74087       18.44276        4.70411
C         -1.87790       17.63763        3.53069
C         -0.49347       18.84605        5.27836
C          0.67770       19.04500        4.63240
C          1.68620       19.48684        5.60580
C          0.99585       19.48270        6.90574
C         -0.27767       19.11520        6.69254
C          1.50840       19.76062        8.19321
N          1.91577       19.99004        9.25557
C          2.95817       19.84934        5.32702
C          3.91700       20.37049        6.29918
C          5.05897       20.70577        5.66213
C          4.90163       20.35835        4.25722
C          3.66887       19.86331        4.04161
C          3.20412       19.44861        2.77299
N          2.82405       19.11497        1.72882
C          6.21187       21.32095        6.33704
C          6.01551       22.19750        7.40687
C          7.08910       22.74120        8.11343
C          8.39513       22.37860        7.74619
C          8.64603       21.53167        6.66729
C          7.52714       21.02252        5.94694
C         10.06802       21.28383        6.50100
C         10.82478       21.91711        7.48821
S          9.84256       22.86833        8.52069
C         12.22160       21.75363        7.57427
C         12.86795       20.94448        6.63941
C         12.14767       20.32651        5.62846
C         10.76096       20.48977        5.54981
H          4.38783       -1.04523       -2.43382
H          6.22810        0.08093       -3.81750
H          5.94080        1.69559       -4.48499
H          4.61850       -0.86580       -5.53025
H          5.99016       -0.02706       -6.27832
H          4.40263        0.75869       -6.19917
H         -0.75884        0.61477       -0.10170
H         -0.51032        2.35087        0.02289
H          0.70764        0.25436        1.88348
H         -0.57971        1.40323        2.26258
H          1.06329        1.98969        1.95217
H          0.57100        3.93292       -0.86885
H          1.28482        3.78008       -3.85647
H         -0.36081        5.85527       -1.04940
H          0.57455        5.96813       -5.23784
H         -1.91628        9.99980       -3.41203
H         -2.61628        9.93600        0.82743
H         -2.55909       12.46075        0.57224
H         -3.08382       12.26369       -3.50994
H         -4.40470       11.51281       -3.13945
H         -5.79922       15.78281       -0.41507
H         -5.54357       17.56151        1.49825
H         -3.19388       18.53702        6.28931
H         -3.17123       19.87634        5.48848
H         -1.03524       17.24674        2.97126
H          0.80889       18.93320        3.56916
H         -1.03692       18.99818        7.45218
H          3.75435       20.50819        7.35417
H          5.67210       20.49895        3.51264
H          5.01129       22.47104        7.72585
H          6.91024       23.40645        8.95373
H          7.71044       20.34924        5.11358
H         12.78683       22.24001        8.36464
H         13.94362       20.80021        6.70703
H         12.65991       19.70308        4.89975
H         10.21147       19.98743        4.75795
