122

C          1.89620       -0.87504        0.03228
N          2.66504        0.07249        0.69203
C          3.93373       -0.20167        1.32986
C          3.82025       -1.21567        2.45796
C          2.09574        1.36315        0.60207
O          2.51141        2.42567        1.02481
C          0.86417        1.11871       -0.17620
C          0.81763       -0.28936       -0.48191
C         -0.39108       -0.55754       -1.26642
O         -0.76401       -1.63067       -1.69734
N         -0.97099        0.72450       -1.37781
C         -2.20785        0.94829       -2.09616
C         -3.43022        0.79542       -1.20666
C         -0.21163        1.69338       -0.71174
C         -0.59102        3.08040       -0.66206
C         -1.47780        3.57046        0.22047
C         -1.97681        4.97693        0.23489
C         -3.36492        5.17579        0.33413
C         -3.88155        6.49444        0.35835
N         -5.21831        6.70714        0.46237
C         -6.02420        5.62949        0.54961
C         -5.52782        4.35221        0.50847
N         -4.20723        4.11193        0.39615
C         -2.99521        7.57338        0.26442
C         -1.60720        7.38197        0.19877
C         -1.09010        6.06293        0.19699
N          0.24958        5.85881        0.16220
C          1.06114        6.93187        0.14426
C          0.55885        8.20660        0.12554
N         -0.76824        8.44624        0.14164
C         -3.51495        8.95346        0.29089
N         -3.83372        9.72703       -0.83256
C         -3.73765        9.31807       -2.21790
C         -5.08112        9.36784       -2.93310
C         -4.17847       11.05011       -0.46955
O         -4.45741       12.00202       -1.17054
C         -4.08163       11.02403        0.99909
C         -3.67642        9.69960        1.38932
C         -3.53339        9.68316        2.85225
O         -3.16898        8.75103        3.54042
N         -3.88633       11.00290        3.21404
C         -3.71221       11.49279        4.56738
C         -2.33667       12.10883        4.77374
C         -4.20071       11.78032        2.09278
C         -4.55313       13.17680        2.14754
C         -5.61684       13.64088        2.82219
C         -6.02565       15.06777        2.86977
C         -6.88572       15.55454        1.87759
C         -7.34854       16.89005        1.94895
N         -8.22088       17.36116        1.02140
C         -8.61168       16.51757        0.04176
C         -8.13490       15.23365       -0.04348
N         -7.28099       14.74035        0.87033
C         -6.89135       17.70846        2.99042
C         -6.03588       17.21873        3.98912
C         -5.60485       15.87218        3.93774
N         -4.80885       15.36882        4.91751
C         -4.44957       16.19254        5.92280
C         -4.84643       17.50501        5.95840
N         -5.63584       18.02920        5.00184
C         -7.35391       19.10360        3.09425
N         -6.69397       20.21579        2.56049
C         -5.46613       20.21330        1.79854
C         -4.23580       20.39538        2.67472
C         -7.32090       21.42261        2.93495
O         -7.00761       22.56643        2.67225
C         -8.44205       20.96352        3.77495
C         -8.41256       19.52500        3.79604
C         -9.52291       19.06272        4.64088
O         -9.83491       17.91128        4.86943
N        -10.09815       20.27385        5.09302
C        -11.21550       20.28729        6.01990
C        -10.89739       20.94174        7.35846
C         -9.43626       21.38911        4.55905
C         -9.81665       22.74722        4.84787
C         -8.96709       23.77839        4.94936
H          2.17949       -1.91724       -0.02507
H          4.34931        0.73321        1.72467
H          4.62627       -0.56676        0.56200
H          3.13604       -0.85940        3.23500
H          4.79950       -1.39157        2.91374
H          3.44236       -2.17631        2.09414
H         -2.26997        0.20840       -2.90243
H         -2.18692        1.93658       -2.56773
H         -3.47543       -0.20546       -0.76633
H         -4.34301        0.95896       -1.78723
H         -3.41993        1.51417       -0.38424
H         -0.13642        3.71948       -1.41435
H         -1.94316        2.91078        0.95182
H         -7.08447        5.82823        0.65191
H         -6.17063        3.48134        0.56439
H          2.12513        6.72679        0.14635
H          1.20468        9.07599        0.10086
H         -3.32415        8.30793       -2.29079
H         -3.04081       10.00079       -2.71775
H         -5.82805        8.75912       -2.41394
H         -4.98060        8.99615       -3.95758
H         -5.46622       10.39127       -2.99002
H         -3.82870       10.64903        5.25695
H         -4.49704       12.21220        4.81306
H         -1.54694       11.37344        4.58725
H         -2.23234       12.47173        5.80058
H         -2.17124       12.95275        4.09604
H         -3.92773       13.85144        1.56570
H         -6.27840       12.96607        3.35993
H         -9.32206       16.90890       -0.67659
H         -8.42029       14.55936       -0.84226
H         -3.83394       15.76057        6.70270
H         -4.54919       18.17615        6.75564
H         -5.51016       21.04916        1.08993
H         -5.39473       19.29246        1.21242
H         -4.29724       21.31609        3.26498
H         -3.33473       20.44703        2.05599
H         -4.11605       19.56258        3.37175
H        -11.52204       19.25254        6.21504
H        -12.06336       20.78285        5.53479
H        -10.07450       20.42505        7.86183
H        -11.77550       20.91403        8.01114
H        -10.61001       21.99062        7.25114
H        -10.87224       22.93634        5.02668
H         -7.89725       23.67367        4.79220
H         -9.32446       24.77450        5.18991
