95

C          5.72255        4.57721        0.03614
N          5.29362        4.73188        1.34934
C          6.15477        4.57559        2.50386
C          6.18456        3.14781        3.02004
C          3.93461        5.09601        1.42744
O          3.24068        5.31639        2.39546
C          3.55059        5.18234        0.00275
C          4.70539        4.84594       -0.78691
C          4.34785        4.95614       -2.21138
O          5.06693        4.76110       -3.16529
N          2.99557        5.36558       -2.14787
C          2.24445        5.70448       -3.34368
C          1.54330        4.50165       -3.94865
C          2.54763        5.47808       -0.82881
C          1.21616        5.87988       -0.47566
C          0.14669        5.07505       -0.61399
C         -1.20071        5.49395       -0.36345
C         -2.38617        5.04634       -0.92966
C         -3.54863        5.73096       -0.41068
N         -4.81301        5.46028       -0.84457
C         -4.83722        4.49033       -1.80343
C         -3.73915        3.79323       -2.34498
C         -2.43084        4.05091       -1.91754
C         -3.26240        6.66102        0.56860
S         -1.55558        6.70995        0.81254
C         -4.14426        7.50060        1.31155
C         -3.88858        7.94451        2.56537
C         -5.04454        8.71393        3.04181
C         -5.93516        8.74139        1.94724
C         -5.44535        8.02745        0.92590
C         -7.20740        9.57199        1.90349
N         -8.26283       10.26104        1.86720
C         -5.42297        9.10336        4.26716
C         -6.54788        9.91125        4.75598
C         -6.72210        9.65726        6.07365
C         -5.70195        8.69344        6.46704
C         -4.90648        8.45207        5.41072
C         -3.66901        7.56980        5.43658
N         -2.64242        6.83788        5.45804
C         -7.75175       10.29488        6.92243
C         -7.52147       11.47078        7.70817
C         -6.13710       12.08714        7.68495
C         -5.20675       11.57802        8.76788
C         -8.58194       12.00316        8.50398
C         -9.84714       11.37480        8.43071
C        -10.05720       10.22051        7.68014
C         -9.01187        9.67771        6.94377
C         -8.41585       13.07551        9.53586
S         -8.97896       12.66851       11.11811
C         -8.47263       14.14349       11.81836
C         -7.73799       14.86212       10.88359
C         -7.92563       14.38174        9.53218
S         -7.60250       15.26340        8.02252
C         -6.74066       16.78856        8.42383
C         -5.36637       16.55443        9.01229
O         -4.34919       16.92204        8.41211
C         -5.24095       15.83919       10.33617
S         -6.67773       16.19206       11.39077
C         -8.79692       14.46767       13.17627
C         -8.99277       13.54808       14.13113
H          6.73603        4.30990       -0.21962
H          5.79084        5.23849        3.29769
H          7.16559        4.90258        2.23553
H          5.19685        2.83760        3.37626
H          6.88957        3.06267        3.85317
H          6.49501        2.44804        2.23714
H          2.94469        6.10975       -4.08029
H          1.52578        6.50100       -3.11630
H          2.26032        3.71516       -4.20264
H          1.01363        4.79331       -4.86042
H          0.81274        4.07256       -3.25924
H          1.12588        6.89864       -0.10991
H          0.29333        4.06414       -0.98481
H         -5.83930        4.25845       -2.16489
H         -3.91733        3.04171       -3.11094
H         -1.57931        3.52431       -2.32594
H         -2.97368        7.75919        3.10133
H         -5.88810        7.89673       -0.05029
H         -7.11742       10.64349        4.20620
H         -5.60949        8.27481        7.45820
H         -6.18613       13.16543        7.77124
H         -5.68025       11.94877        6.69922
H         -5.51910       11.93129        9.75558
H         -4.19523       11.95572        8.58441
H         -5.16631       10.48651        8.79303
H        -10.68855       11.75769        9.00881
H        -11.03183        9.73848        7.68945
H         -9.19143        8.76480        6.37793
H         -7.33951       17.44870        9.05651
H         -6.59908       17.33134        7.48282
H         -4.34419       16.20513       10.84503
H         -5.11155       14.76608       10.16035
H         -8.90198       15.51992       13.43692
H         -8.89316       12.48252       13.95173
H         -9.25949       13.84583       15.14011
