107

C         -1.07257       -1.31288       -0.58704
N         -2.24003       -0.56533       -0.60967
C         -3.44257       -0.96682       -1.31430
C         -4.61493       -1.19638       -0.37654
C         -2.10436        0.65472        0.09165
O         -2.89919        1.54933        0.26622
C         -0.70890        0.58022        0.58768
C         -0.15143       -0.65513        0.11274
C          1.23079       -0.74474        0.57751
O          2.01422       -1.65174        0.36497
N          1.39483        0.45043        1.31940
C          2.67406        0.65375        1.96385
C          2.86540        1.82498        2.89035
C          0.22067        1.21781        1.30509
C          0.03213        2.48670        1.95512
C          0.67121        3.60419        1.58611
C          0.43872        4.83325        2.24273
S         -0.73656        5.89437        1.55498
C         -0.55727        7.09682        2.79135
C          0.47155        6.71675        3.61216
C          1.00287        5.43392        3.34587
C          2.02262        5.12053        4.33148
O          2.68060        4.09928        4.42867
C          2.15602        6.31231        5.27881
C          1.13234        7.31956        4.75220
O          0.94205        8.43876        5.19438
C         -1.37764        8.25090        2.82527
C         -2.69184        8.20048        2.53019
C         -3.63661        9.27704        2.66176
C         -3.64547       10.08005        3.80015
C         -2.82084        9.96915        4.97969
N         -2.18079        9.86886        5.95016
S         -4.85886       11.26426        3.71646
C         -5.50374       10.62829        2.26415
O         -6.60531       11.21863        1.80208
C         -6.32478       12.24609        0.85025
C         -4.79048        9.54936        1.76736
C         -5.18711        8.74874        0.47552
S         -4.05565        7.74263       -0.38534
C         -6.39646        8.67152       -0.22378
C         -7.53709        9.57537       -0.32521
O         -7.44165       10.68251       -0.83960
C         -8.80288        8.88317       -0.41275
C        -10.06008        9.40894       -0.23655
N        -10.94943        8.55318       -0.84125
C        -12.28022        8.99914       -1.22882
C        -13.36960        7.94846       -1.25809
C        -10.28154        7.41743       -1.25614
C         -8.92451        7.61296       -1.04025
C         -7.74978        6.85187       -1.49398
O         -7.81803        5.82865       -2.16154
C         -6.47068        7.46804       -1.04881
C         -5.20522        7.25040       -1.56979
C         -4.79000        6.63622       -2.79370
C         -4.91122        7.23371       -3.99423
C         -4.79783        6.40633       -5.25365
O         -4.21557        5.35352       -5.40370
C         -5.60741        7.12366       -6.27139
C         -5.93086        6.70205       -7.55257
C         -6.87977        7.44453       -8.27906
C         -7.50554        8.57681       -7.67187
C         -8.53712        9.24134       -8.35331
C         -8.92087        8.82439       -9.62346
C         -8.26980        7.76773      -10.24256
C         -7.25561        7.07691       -9.58269
F         -8.62455        7.39181      -11.47903
F         -9.92948        9.45342      -10.24256
C         -7.09207        9.01739       -6.40046
C         -6.10923        8.31119       -5.72308
C         -5.39184        8.54138       -4.44585
C         -4.89034        9.76462       -4.11198
C         -3.78840        9.90971       -3.21904
N         -2.84636       10.05726       -2.56062
C         -5.25200       10.96076       -4.81319
N         -5.54839       11.91470       -5.40542
H         -0.97839       -2.27031       -1.07869
H         -3.23880       -1.88448       -1.87965
H         -3.69118       -0.17670       -2.03049
H         -4.36986       -1.94473        0.38510
H         -5.48703       -1.54728       -0.93683
H         -4.89596       -0.27382        0.14029
H          3.42654        0.70759        1.16885
H          2.88963       -0.25777        2.53174
H          2.92556        2.75641        2.32327
H          3.81393        1.74089        3.42889
H          2.06442        1.87679        3.63319
H         -0.70769        2.50443        2.75515
H          1.36444        3.59856        0.74717
H          3.16507        6.72401        5.20748
H          1.90392        6.00750        6.29726
H         -0.91039        9.17189        3.18419
H         -3.12127        7.24567        2.22554
H         -7.28827       12.62021        0.49043
H         -5.74638       11.83747        0.01328
H         -5.76751       13.07855        1.27946
H        -10.36843       10.38527        0.11920
H        -12.16927        9.46013       -2.21806
H        -12.57176        9.79251       -0.52887
H        -13.17709        7.19681       -2.02861
H        -14.32900        8.42473       -1.49066
H        -13.46232        7.44507       -0.29203
H        -10.80310        6.61734       -1.76700
H         -4.47609        5.59718       -2.73586
H         -5.48045        5.79970       -7.95882
H         -9.06350       10.08003       -7.90456
H         -6.77709        6.24769      -10.09745
H         -7.55102        9.89954       -5.96005
