105

C         -3.97909       -1.36643       -2.41522
N         -2.71093       -0.86010       -2.66930
C         -1.63421       -1.58461       -3.30971
C         -0.78159       -2.37607       -2.33226
C         -2.59331        0.48633       -2.27360
O         -1.63591        1.22922       -2.33737
C         -3.94388        0.78927       -1.75462
C         -4.73572       -0.40773       -1.87843
C         -6.08455       -0.11559       -1.36399
O         -7.02085       -0.88213       -1.29564
N         -5.98176        1.24206       -0.98076
C         -7.09869        1.94726       -0.38099
C         -8.01224        2.59327       -1.41171
C         -4.69738        1.75103       -1.21181
C         -4.31569        3.10671       -0.90596
C         -3.07859        3.45973       -0.51692
C         -2.75221        4.81029       -0.22235
S         -2.20434        5.81656       -1.50021
C         -2.00389        7.20199       -0.48838
C         -2.32818        6.88398        0.81727
C         -2.72815        5.50490        0.97019
C         -3.07432        4.92707        2.19829
C         -3.03450        5.83708        3.29127
C         -3.41490        5.29054        4.64890
C         -2.66593        7.22809        3.13886
C         -2.62185        8.17107        4.32229
C         -2.28325        7.78999        1.88758
C         -1.54429        8.44969       -1.04825
S         -1.87685        8.92679       -2.66433
C         -1.04856       10.40554       -2.34256
N         -0.57047       10.47303       -1.11527
N         -0.85737        9.34594       -0.36938
C         -0.96136       11.36297       -3.38467
C         -0.33848       12.54009       -3.21662
C         -0.21500       13.48275       -4.28747
S         -0.06450       12.92898       -5.92710
C          0.03905       14.50749       -6.58556
C         -0.00621       15.44710       -5.57804
C         -0.13034       14.86428       -4.26632
C         -0.16991       15.62762       -3.08968
C         -0.04313       17.02824       -3.31323
C          0.01016       17.91483       -2.08872
C          0.05382       17.60771       -4.63707
C          0.19796       19.09916       -4.84112
C          0.07676       16.82063       -5.82055
C          0.16343       14.64481       -7.98148
N         -0.89329       14.78491       -8.87952
C         -2.30642       14.78985       -8.55163
C         -2.98939       16.08991       -8.95465
C         -0.42029       14.89095      -10.20450
O         -1.03651       14.98651      -11.24535
C          1.04208       14.86545      -10.03095
C          1.32704       14.68266       -8.63411
C          2.78744       14.64288       -8.47236
O          3.41514       14.50399       -7.43579
N          3.25360       14.82087       -9.79173
C          4.66672       14.88676      -10.10693
C          5.22528       16.30222      -10.07219
C          2.19546       14.97406      -10.69157
C          2.35997       15.22396      -12.09262
C          1.91824       16.33398      -12.69884
H         -4.25278       -2.38437       -2.65146
H         -0.99402       -0.85800       -3.82354
H         -2.05860       -2.24708       -4.07139
H         -0.36763       -1.73204       -1.54963
H          0.05364       -2.84741       -2.86150
H         -1.36485       -3.16520       -1.84768
H         -6.72882        2.69825        0.32464
H         -7.68355        1.22410        0.19920
H         -7.48643        3.36857       -1.97765
H         -8.86998        3.05951       -0.91500
H         -8.39372        1.85607       -2.12574
H         -5.09087        3.86508       -0.99464
H         -2.27366        2.73604       -0.43254
H         -3.34433        3.88541        2.32183
H         -3.63234        4.21798        4.60342
H         -4.31642        5.79001        5.01795
H         -2.59443        5.42747        5.36025
H         -3.12016        7.77149        5.20832
H         -3.13013        9.10950        4.07320
H         -1.58120        8.38834        4.58344
H         -1.98931        8.83033        1.80088
H         -1.41623       11.10287       -4.33580
H          0.08455       12.80616       -2.24986
H         -0.26396       15.20942       -2.09541
H         -0.03313       17.32866       -1.16459
H         -0.83749       18.60648       -2.07885
H          0.94999       18.47652       -2.07288
H         -0.07264       19.67927       -3.95618
H         -0.46324       19.43250       -5.64885
H          1.23287       19.33628       -5.10778
H          0.16773       17.26381       -6.80495
H         -2.45470       14.62680       -7.47943
H         -2.77494       13.95304       -9.08210
H         -2.55357       16.94080       -8.42179
H         -4.05792       16.04635       -8.72431
H         -2.89004       16.28354      -10.02703
H          4.84238       14.43227      -11.08699
H          5.20974       14.28243       -9.37001
H          4.69073       16.96133      -10.76258
H          6.28202       16.29393      -10.36034
H          5.15425       16.73608       -9.06905
H          2.85197       14.45252      -12.67809
H          1.42088       17.13286      -12.15556
H          2.03649       16.46546      -13.76972
