70

C         -1.61781       -0.14928       -2.99860
N         -0.47751        0.39606       -3.53910
C          0.53202        0.21843       -2.63474
C          1.90850        0.47020       -2.43357
C          2.19653       -0.06191       -1.18414
N          1.04713       -0.60613       -0.65104
C          0.03441       -0.42724       -1.55211
C         -1.34349       -0.67790       -1.75122
C          3.37527       -0.15051       -0.40093
C          4.52909        0.36909       -0.84275
C          5.71597        0.27496       -0.07063
S          7.17155        0.96357       -0.68621
C          7.96728        0.43479        0.74959
N          7.16887       -0.20672        1.57866
N          5.87654       -0.29466        1.10920
C          9.34517        0.72297        0.90591
C         10.01911        0.34045        2.00262
C         11.41010        0.61528        2.16223
S         12.43719        0.73619        0.80434
C         13.83354        1.05650        1.73247
C         13.54191        1.02433        3.08539
C         12.13791        0.78860        3.33015
C         11.57148        0.75887        4.72091
C         12.51049        1.42753        5.73822
C         12.41570        2.93849        5.60250
N         12.33706        4.19195        5.48991
C         13.97146        0.96461        5.59592
C         14.08782       -0.47282        5.92209
N         14.15780       -1.60465        6.19412
C         14.53980        1.24901        4.19573
C         15.07512        1.33428        1.09779
C         15.39438        0.77509       -0.07995
C         16.65537        0.98141       -0.77308
C         17.84885        1.23490       -0.14126
N         19.03153        1.32895       -0.77493
C         19.04507        1.10393       -2.10401
N         17.91985        0.88446       -2.81031
C         16.75621        0.82790       -2.13656
N         20.27399        1.00466       -2.73973
C         20.59596        0.31728       -3.86016
C         19.92525       -0.15027       -4.95281
S         20.98589       -1.12614       -5.91214
C         22.31194       -0.91144       -4.81729
C         21.93542       -0.08166       -3.80535
N         22.53674        0.37064       -2.67979
C         21.46413        1.01702       -1.87247
H         -2.54465       -0.11589       -3.55630
H         -0.36214        0.85262       -4.43534
H          2.59076        0.96700       -3.10851
H          0.92566       -1.06643        0.24224
H         -2.03915       -1.17128       -1.08707
H          3.33787       -0.65048        0.56618
H          4.58482        0.87169       -1.80280
H          9.83223        1.26912        0.10327
H          9.50764       -0.18196        2.80833
H         11.40840       -0.29018        4.99987
H         10.58995        1.24958        4.73738
H         12.14504        1.18096        6.74491
H         14.59401        1.50636        6.32326
H         15.43758        0.64214        4.01650
H         14.85774        2.30001        4.14910
H         15.75884        2.00595        1.60905
H         14.71013        0.09560       -0.58486
H         17.91331        1.33913        0.93736
H         15.88507        0.62580       -2.75546
H         18.89160       -0.00460       -5.23231
H         23.25936       -1.39914       -4.98911
H         23.15872       -0.23473       -2.15711
H         21.75739        2.04364       -1.62381
H         21.33074        0.43465       -0.95218
