96

C         -2.30096        2.27721       -6.40668
O         -3.40858        1.57461       -6.07220
C         -3.05881        0.43736       -5.36713
C         -1.66864        0.50028       -5.25946
C         -1.20118        1.71926       -5.81990
C          0.13484        2.26328       -5.81294
O          0.52442        3.13526       -6.57904
C         -4.01544       -0.54922       -4.93672
C         -5.32586       -0.54699       -5.30500
N         -6.04842        0.44720       -6.06114
O         -7.15717        0.76652       -5.60531
O         -5.60861        0.80893       -7.15876
C         -6.02106       -1.73779       -4.89093
C         -5.15202       -2.54966       -4.28395
C         -3.85328       -1.87120       -4.18812
C         -2.79494       -2.36122       -3.49075
C         -1.72308       -1.53881       -2.93411
C         -0.75385       -2.34088       -2.47133
C         -1.19419       -3.70739       -2.62005
N         -0.40646       -4.83531       -2.16408
O          0.37894       -4.61638       -1.23023
O         -0.52222       -5.92275       -2.74262
C         -2.44334       -3.78017       -3.13426
C         -3.16126       -5.00451       -3.38038
C         -4.35988       -5.27715       -2.85429
C         -5.11096       -6.44793       -3.17334
N         -5.87927       -7.12025       -2.22753
C         -6.05990       -6.71995       -0.84758
C         -7.18946       -5.71334       -0.67997
C         -6.49780       -8.26098       -2.77580
O         -7.21366       -9.08213       -2.25863
C         -6.04249       -8.21742       -4.17920
C         -5.23581       -7.04944       -4.36208
C         -4.84811       -6.99535       -5.78030
O         -4.21776       -6.11536       -6.33252
N         -5.40973       -8.18210       -6.31083
C         -5.30905       -8.46681       -7.72969
C         -3.91417       -8.94047       -8.11523
C         -6.09368       -8.89749       -5.32275
C         -6.80602      -10.14361       -5.43588
C         -6.61258      -11.14024       -6.30000
C         -7.28681      -12.43142       -6.36697
C         -8.41684      -12.87180       -5.73925
N         -9.37156      -12.10652       -4.96119
O         -9.58225      -10.92523       -5.25886
O         -9.99672      -12.72669       -4.08708
C         -8.57277      -14.30032       -5.84993
C         -7.56093      -14.79228       -6.56799
C         -6.75023      -13.67951       -7.06322
C         -5.76868      -13.81036       -7.99512
C         -5.12057      -12.71377       -8.72373
C         -4.13614      -13.22236       -9.48006
C         -4.13158      -14.65621       -9.31643
N         -3.16652      -15.50786       -9.97710
O         -2.09874      -14.97241      -10.31004
O         -3.45178      -16.68831      -10.19097
C         -5.11375      -15.07517       -8.48855
C         -5.36853      -16.44649       -8.10583
C         -6.43248      -17.14945       -8.52761
C         -6.71524      -18.41777       -7.95508
O         -7.37796      -18.53454       -6.75028
C         -7.56861      -19.84725       -6.47896
C         -7.05208      -20.61069       -7.49267
C         -6.48121      -19.70766       -8.43364
C         -5.80479      -20.05108       -9.66673
O         -5.12334      -19.28145      -10.33163
H         -2.46637        3.16187       -7.00749
H         -1.01845       -0.23851       -4.82732
H          0.80195        1.84601       -5.03795
H         -7.07639       -1.92165       -5.03676
H         -5.48550       -3.45722       -3.83129
H         -1.74510       -0.46790       -2.81367
H          0.15978       -2.04177       -1.97978
H         -2.66297       -5.74237       -4.01090
H         -4.82474       -4.57162       -2.16966
H         -5.11898       -6.30565       -0.47064
H         -6.28343       -7.61200       -0.25316
H         -7.06282       -4.84388       -1.33373
H         -7.22352       -5.35653        0.35406
H         -8.15704       -6.16641       -0.91853
H         -5.52741       -7.54280       -8.27932
H         -6.06627       -9.18965       -8.04132
H         -3.16463       -8.17111       -7.90166
H         -3.86578       -9.16686       -9.18520
H         -3.63206       -9.83962       -7.55888
H         -7.51873      -10.26816       -4.62663
H         -5.75583      -11.03104       -6.94603
H         -9.35129      -14.87688       -5.37287
H         -7.45283      -15.84084       -6.74680
H         -5.41185      -11.68023       -8.76463
H         -3.49644      -12.68264      -10.16300
H         -4.64598      -16.89407       -7.42638
H         -7.16690      -16.72405       -9.20438
H         -8.07496      -20.06653       -5.54766
H         -7.06063      -21.69171       -7.54141
H         -5.94619      -21.09476       -9.99567
