107

C         -1.52068       -4.70757       -5.14516
C         -0.97944       -3.79124       -4.05774
N          0.46977       -3.77140       -4.03083
C          1.24155       -4.66442       -3.31291
C          2.52393       -4.39098       -3.52610
C          3.85409       -4.86090       -3.15378
O          4.10849       -5.79461       -2.42693
N          4.69707       -4.00505       -3.88654
C          6.11088       -4.31802       -3.93416
C          6.43892       -5.31685       -5.02813
C          3.96837       -3.09387       -4.69124
N          4.53852       -2.17279       -5.55986
C          5.65463       -1.37016       -5.20984
O          6.23218       -1.29941       -4.13209
C          6.01327       -0.46398       -6.40172
C          7.38038       -0.78082       -7.02940
C          7.72290       -2.27538       -7.01959
O          7.09031       -3.13189       -7.62438
N          8.89646       -2.47273       -6.23918
C          9.47173       -3.73168       -6.19409
C         10.62077       -4.12873       -5.63006
C         11.14198       -5.44961       -5.80736
S         12.05244       -6.12930       -4.51257
C         12.27175       -7.66608       -5.27802
N         12.97470       -8.69422       -4.69980
C         13.19064       -8.89561       -3.35952
S         14.67594       -9.57528       -2.82630
C         14.33586       -9.31337       -1.14674
C         15.32855       -9.59417       -0.12684
S         17.04255       -9.41986       -0.44360
C         17.50540       -9.90567        1.14277
C         16.39263      -10.16329        1.88671
C         15.18791       -9.98748        1.18030
C         14.14214      -10.30585        2.08439
C         14.63353      -10.65223        3.29439
C         16.12957      -10.58631        3.23510
O         16.91340      -10.84379        4.12810
C         13.04114       -8.85005       -1.00533
N         12.44987       -8.57491        0.19690
C         11.17242       -8.13688        0.04188
C         10.51804       -7.98625       -1.17995
N         11.07056       -8.24980       -2.38687
C         12.36963       -8.66191       -2.27346
C         11.73946       -7.61067       -6.55256
C         11.78112       -8.68431       -7.45224
C         11.21401       -8.38573       -8.72444
C         11.22066       -9.46287       -9.67600
N         11.24595      -10.35708      -10.41784
C         10.66841       -7.09688       -9.06654
C         10.10683       -6.76781      -10.43949
F         10.17800       -7.75877      -11.35678
F          8.79115       -6.41134      -10.37301
F         10.74711       -5.70068      -10.99491
C         10.62161       -6.02587       -8.13130
C         11.14456       -6.33470       -6.86962
C          9.35121       -1.22245       -5.76131
C         10.43066       -0.90931       -4.95220
C         10.75248        0.43589       -4.71854
C         11.90348        0.79042       -3.82106
C          9.98357        1.44953       -5.31471
C          8.86341        1.13513       -6.08625
C          8.54188       -0.20191       -6.26750
C          4.84797       -0.70118       -7.31673
C          4.51273       -0.00850       -8.47160
C          3.33957       -0.36343       -9.13730
C          2.54883       -1.43116       -8.67779
C          1.25406       -1.77552       -9.35774
C          2.93904       -2.14918       -7.53326
C          4.04283       -1.72480       -6.81306
C          2.65702       -3.29479       -4.45900
C          1.26154       -2.85196       -4.75027
O          0.89491       -1.91700       -5.43153
H         -2.61541       -4.69420       -5.14392
H         -1.19396       -5.74153       -4.99040
H         -1.17561       -4.39276       -6.13540
H         -1.34762       -4.11258       -3.07681
H         -1.33972       -2.77203       -4.23452
H          0.81474       -5.43777       -2.69173
H          6.39225       -4.75701       -2.96991
H          6.72574       -3.43115       -4.04516
H          5.89052       -6.25284       -4.89017
H          7.50766       -5.54744       -5.01423
H          6.17879       -4.92009       -6.01250
H          5.95807        0.57526       -6.05433
H          7.44833       -0.43480       -8.06869
H          8.88716       -4.46797       -6.74418
H         11.21714       -3.48055       -5.01211
H         13.61362       -9.19057       -5.31608
H         18.54562       -9.96902        1.43226
H         13.08885      -10.27338        1.84625
H         14.09628      -10.93837        4.18063
H         10.65500       -7.89730        0.96611
H          9.49413       -7.62441       -1.21597
H         12.18626       -9.66257       -7.21525
H         10.22217       -5.05771       -8.41670
H         11.03031       -1.66125       -4.46510
H         12.42792       -0.10454       -3.46748
H         11.53831        1.33071       -2.94216
H         12.62843        1.41071       -4.35657
H         10.25109        2.49296       -5.16214
H          8.27084        1.92536       -6.53575
H          5.11730        0.81684       -8.83458
H          3.03330        0.20361      -10.01445
H          1.05898       -1.11569      -10.20955
H          0.42240       -1.65930       -8.65363
H          1.27504       -2.80646       -9.72272
H          2.33632       -2.98988       -7.21440
