93

C          1.94377       -0.02595       -2.05139
C          1.16529        1.10044       -2.24302
C          0.62087        1.71069       -3.46028
O         -0.07375        2.73408       -3.41999
C          0.90778        1.05258       -4.81387
F          1.71713       -0.04267       -4.78099
F         -0.23741        0.63843       -5.42917
F          1.50907        1.91852       -5.68008
S          0.82618        1.85257       -0.73069
C          1.65375        0.64565        0.14929
C          2.19625       -0.31229       -0.67135
C          2.99102       -1.48369       -0.19265
S          4.18490       -2.22617       -1.18151
C          4.68357       -3.34444        0.04386
C          3.84877       -3.19677        1.12433
C          2.90500       -2.14331        1.00280
C          2.05321       -2.10490        2.17355
O          1.11206       -1.35335        2.37256
C          2.50983       -3.21906        3.12087
C          3.68398       -3.87896        2.39197
O          4.33388       -4.82555        2.80119
C          5.73797       -4.27339       -0.17865
C          6.78903       -3.99404       -0.96943
C          7.87125       -4.89877       -1.24497
N          8.57613       -4.91722       -2.45189
C          8.32842       -4.08468       -3.61400
C          7.30548       -4.69077       -4.56080
C          9.58137       -5.91265       -2.45434
O         10.35026       -6.23745       -3.33384
C          9.47043       -6.49378       -1.10232
C          8.40872       -5.80310       -0.41908
C          8.31221       -6.35129        0.94342
O          7.55932       -6.01584        1.82877
N          9.30864       -7.34494        0.94686
C          9.51459       -8.19398        2.09994
C         10.44431       -7.56578        3.12416
C          9.98759       -7.40281       -0.27221
C         11.10110       -8.27769       -0.50690
C         11.19758       -9.13546       -1.53502
C         12.37966       -9.90414       -1.70767
S         13.58935       -9.31450       -2.77154
C         12.75338      -11.12412       -1.16688
C         11.87701      -11.99575       -0.35502
O         10.70783      -11.75131       -0.08468
C         12.55111      -13.22705        0.05016
C         12.02505      -14.34470        0.67231
N         13.03921      -15.25674        0.83647
C         12.90224      -16.57862        1.42751
C         12.61695      -17.64874        0.38710
C         14.21415      -14.72862        0.36634
C         13.93930      -13.47997       -0.15523
C         14.85824      -12.55360       -0.79905
O         16.07346      -12.68901       -0.74334
C         14.15708      -11.44113       -1.46940
C         14.68042      -10.59018       -2.44024
C         15.98039      -10.79949       -3.22003
C         16.79608       -9.83069       -3.81643
C         16.74219       -8.36107       -3.77040
O         16.19734       -7.77306       -2.82675
C         17.40644       -7.51857       -4.88093
F         17.99952       -8.20302       -5.89883
F         16.50953       -6.68971       -5.49334
F         18.37764       -6.70131       -4.37449
S         18.17253      -10.57309       -4.55497
C         17.64951      -12.13951       -4.19943
C         16.46980      -12.12465       -3.50172
H          2.29490       -0.66960       -2.84786
H          1.71961        0.73293        1.22506
H          1.70342       -3.94534        3.24836
H          2.84209       -2.79134        4.06827
H          5.67171       -5.22426        0.34761
H          6.86519       -3.02384       -1.45096
H          9.27443       -3.95797       -4.15336
H          8.01290       -3.08484       -3.29941
H          7.64025       -5.66636       -4.92754
H          7.15477       -4.03582       -5.42560
H          6.33884       -4.83013       -4.06683
H          9.88691       -9.17107        1.77948
H          8.53904       -8.35985        2.57455
H         11.41876       -7.33049        2.68581
H         10.59942       -8.25272        3.96216
H         10.02307       -6.63659        3.52303
H         11.91660       -8.19219        0.21130
H         10.39308       -9.24373       -2.26481
H         11.01365      -14.56405        0.99342
H         12.09592      -16.53281        2.16724
H         13.83373      -16.80169        1.95999
H         11.68786      -17.43811       -0.15276
H         12.51921      -18.62856        0.86543
H         13.42459      -17.71038       -0.35036
H         15.14446      -15.28198        0.41729
H         18.22447      -13.00421       -4.50279
H         15.98909      -13.04687       -3.20122
