84

C         -0.36295       -1.07109        3.26733
S         -0.70169       -2.07990        1.95769
C          0.83878       -2.89041        2.04961
C          1.64125       -2.31067        3.04286
C          0.91138       -1.26420        3.73319
C          3.02470       -2.70982        3.40497
O          3.58042       -3.67199        2.86965
C          3.76988       -1.85665        4.44133
F          3.05140       -1.64822        5.58241
F          4.94883       -2.40673        4.84517
F          4.07487       -0.61831        3.95678
C          1.06447       -4.01926        1.15163
S         -0.23503       -5.06412        0.75234
C          0.73296       -6.17543       -0.13174
C          2.03411       -5.69258       -0.19454
C          2.20751       -4.44430        0.50181
C          3.10020       -6.37202       -0.87544
N          3.94992       -6.94044       -1.42599
C          0.17233       -7.39160       -0.65561
C         -1.14434       -7.66451       -0.62092
C         -1.75397       -8.87647       -1.08457
N         -1.72069       -9.32677       -2.41011
C         -1.04933       -8.66751       -3.51826
C         -1.72062       -8.86954       -4.87157
C         -2.41103      -10.54908       -2.54480
O         -2.56554      -11.27121       -3.50397
C         -2.94319      -10.76506       -1.19465
C         -2.50121       -9.70460       -0.34972
C         -3.06130       -9.95264        0.99489
O         -2.89870       -9.27867        1.98698
N         -3.82238      -11.14613        0.81302
C         -4.51422      -11.71321        1.95835
C         -5.33753      -12.97931        1.79367
C         -3.71445      -11.60176       -0.50251
C         -4.36499      -12.74673       -1.05767
C         -3.77756      -13.62574       -1.88502
C         -4.43776      -14.79695       -2.38797
C         -5.32199      -15.52216       -1.67211
C         -5.70010      -16.69923       -2.44407
C         -4.93019      -16.60993       -3.69509
C         -4.18658      -15.49370       -3.63730
C         -4.91607      -17.50086       -4.79402
N         -4.89992      -18.22931       -5.69299
C         -6.56636      -17.64561       -2.02835
C         -6.93310      -18.84197       -2.78115
C         -7.81016      -19.54714       -2.04131
C         -8.04892      -18.84979       -0.79411
C         -7.32222      -17.71989       -0.76532
C         -7.34091      -16.81661        0.32344
N         -7.35987      -16.07865        1.21945
C         -8.33246      -20.77764       -2.48920
S         -7.52453      -22.23564       -2.10396
C         -8.67349      -23.17331       -2.95035
C         -9.68420      -22.42261       -3.52162
C         -9.46526      -21.02419       -3.23891
C        -10.82607      -22.92728       -4.30876
O        -11.63178      -22.10859       -4.76788
C        -11.02235      -24.42775       -4.55017
F        -10.08520      -25.23927       -3.98585
F        -12.21958      -24.86601       -4.06520
F        -11.01699      -24.73474       -5.87911
H         -1.10373       -0.37100        3.63063
H          1.28474       -0.67618        4.56371
H          3.15776       -3.92693        0.55289
H          0.85655       -8.12893       -1.07130
H         -1.86299       -6.97629       -0.18050
H         -0.02014       -9.04034       -3.55135
H         -1.02110       -7.59057       -3.32213
H         -1.65002       -9.90849       -5.20565
H         -1.23224       -8.25873       -5.63609
H         -2.78031       -8.59526       -4.83095
H         -5.16689      -10.92485        2.35406
H         -3.75590      -11.89073        2.73155
H         -6.19774      -12.81242        1.13850
H         -5.73980      -13.29809        2.76074
H         -4.73618      -13.80665        1.40496
H         -5.41195      -12.87122       -0.80316
H         -2.75019      -13.48726       -2.21749
H         -5.63835      -15.26758       -0.67614
H         -3.50165      -15.13157       -4.39278
H         -6.56937      -19.14938       -3.74673
H         -8.71061      -19.21331       -0.02150
H         -8.51225      -24.23962       -2.96274
H        -10.12342      -20.23188       -3.58676
