119

C         -3.41998        0.11882       -0.24825
S         -4.31279       -1.23921       -0.73497
C         -2.06370       -0.07590       -0.37011
C         -1.06975        0.94164        0.01506
O         -1.35948        2.05611        0.43049
C          0.29409        0.45497       -0.14288
C          1.48457        1.07974        0.19073
N          2.51389        0.23193       -0.13802
C          3.92802        0.46030        0.11583
C          4.49498        1.67683       -0.59510
C          2.00025       -0.92275       -0.67456
C          0.62294       -0.82481       -0.67249
C         -0.34458       -1.82836       -1.10978
O          0.00326       -2.88554       -1.62008
C         -1.74565       -1.41060       -0.89547
C         -2.89939       -2.18580       -1.06461
C         -3.05023       -3.60846       -1.35231
S         -4.21720       -4.55874       -0.48618
C         -3.58124       -6.03555       -1.06277
C         -2.45296       -5.80156       -1.82669
C         -2.45062       -4.43055       -2.29873
C         -1.77793       -4.06171       -3.60406
N         -2.81220       -3.60624       -4.63931
O         -3.92692       -4.14919       -4.63299
O         -2.44174       -2.74855       -5.45128
C         -1.02892       -5.25600       -4.24423
C         -0.36892       -6.15815       -3.19531
C         -1.43551       -6.81918       -2.29829
N         -0.66974       -7.45454       -1.13505
O         -0.40192       -6.74963       -0.15004
O         -0.31994       -8.63462       -1.27780
C         -4.21489       -7.26188       -0.73695
C         -3.90869       -7.91993        0.38894
C         -4.44231       -9.20996        0.74347
N         -4.62526       -9.63736        2.06222
C         -4.46845       -8.83816        3.26220
C         -5.79189       -8.25461        3.73089
C         -5.08268      -10.97265        2.11865
O         -5.35920      -11.65797        3.08304
C         -5.15700      -11.35152        0.70088
C         -4.74254      -10.21978       -0.08253
C         -4.77450      -10.61812       -1.50184
O         -4.47919       -9.93617       -2.46583
N         -5.21352      -11.95505       -1.44449
C         -5.36300      -12.75990       -2.64348
C         -6.73847      -12.64484       -3.28339
C         -5.44150      -12.35690       -0.13010
C         -5.85324      -13.67863        0.22386
C         -6.93271      -13.93380        0.97832
C         -7.35462      -15.25949        1.34169
C         -6.52561      -16.29969        1.57918
C         -7.32465      -17.46055        1.96398
C         -8.71264      -16.98917        1.95791
C         -8.71315      -15.69236        1.60698
C         -9.90757      -17.70732        2.24569
N        -10.88988      -18.28406        2.47023
C         -6.83762      -18.68177        2.26564
C         -7.64734      -19.83484        2.66128
C         -6.82451      -20.87504        2.88874
C         -5.45516      -20.44859        2.64872
C         -5.44131      -19.15061        2.27917
C         -4.24830      -18.44202        1.97198
N         -3.27791      -17.87301        1.71006
C         -7.31797      -22.13692        3.30051
S         -7.79987      -23.27254        2.09737
C         -7.49679      -22.65438        4.57735
C         -7.21526      -21.93812        5.83415
O         -6.85025      -20.77107        5.90257
C         -7.42372      -22.78579        7.00540
C         -7.20369      -22.47788        8.33278
N         -7.54622      -23.57234        9.08786
C         -7.43548      -23.65322       10.53579
C         -8.30836      -22.63867       11.25630
C         -7.96199      -24.58891        8.26487
C         -7.89918      -24.13454        6.96161
C         -8.23210      -24.84715        5.73429
O         -8.64646      -25.99878        5.69656
C         -7.99203      -24.02377        4.54281
C         -8.20704      -24.45611        3.25272
H         -3.92763        1.00455        0.11509
H          1.67165        2.04840        0.64097
H          4.47202       -0.43416       -0.20950
H          4.05021        0.54837        1.20079
H          4.34022        1.61253       -1.67691
H          5.57147        1.75167       -0.40795
H          4.02799        2.60088       -0.24013
H          2.64543       -1.73346       -0.99113
H         -1.10969       -3.20782       -3.50603
H         -0.26722       -4.87852       -4.93735
H         -1.70838       -5.87610       -4.84554
H          0.33278       -5.55633       -2.60063
H          0.23312       -6.93103       -3.68936
H         -1.93441       -7.64090       -2.82517
H         -4.92943       -7.65523       -1.45811
H         -3.18535       -7.48637        1.07483
H         -3.73940       -8.04007        3.09853
H         -4.06494       -9.48272        4.05157
H         -6.25520       -7.64493        2.94855
H         -5.63897       -7.62523        4.61310
H         -6.49779       -9.04794        3.99871
H         -5.13186      -13.80780       -2.42397
H         -4.61789      -12.41449       -3.36786
H         -7.50666      -13.12257       -2.66717
H         -6.73631      -13.14025       -4.26083
H         -7.02705      -11.59985       -3.43525
H         -5.24142      -14.48795       -0.16313
H         -7.55874      -13.11837        1.33980
H         -5.45153      -16.24457        1.50979
H         -9.57559      -15.05077        1.51654
H         -8.71733      -19.87722        2.77229
H         -4.59949      -21.09526        2.76230
H         -6.83690      -21.56759        8.79157
H         -6.37891      -23.50285       10.78302
H         -7.71311      -24.66808       10.84175
H         -8.04855      -21.61325       10.97306
H         -8.17994      -22.72929       12.33930
H         -9.36646      -22.79228       11.02061
H         -8.26430      -25.55186        8.65975
H         -8.58104      -25.42191        2.93577
