74

C         -4.60645        1.92261        6.80083
C         -4.10693        2.21911        5.52805
O         -3.05420        1.55011        4.95044
C         -2.45205        0.50745        5.70948
C         -4.68898        3.26772        4.77967
C         -5.78446        3.96002        5.32464
C         -6.28377        3.64717        6.58996
C         -5.68227        2.63644        7.33055
O         -7.31895        4.42691        7.02660
C         -8.23621        3.78992        7.90878
C         -4.18237        3.60060        3.42965
C         -4.23076        4.82222        2.87179
C         -3.65983        5.14296        1.55660
C         -3.18526        6.43919        1.31419
C         -2.58496        6.77949        0.09372
C         -2.55236        5.76988       -0.87039
N         -3.04405        4.51845       -0.70128
C         -3.58411        4.23663        0.50539
C         -2.05403        8.12052       -0.16478
S         -2.05837        8.82751       -1.75190
C         -1.44201       10.36366       -1.22550
C         -1.20575       10.24849        0.10301
C         -1.52717        9.03752        0.68414
N         -1.29060        8.92017        2.02816
C         -0.82203       10.18932        2.35265
C         -0.48790       10.56247        3.68821
N         -0.23086       10.84299        4.78262
C         -0.74636       11.01284        1.21056
C         -1.25576       11.48277       -2.10107
S         -0.03335       12.67662       -1.85670
C         -0.54936       13.69956       -3.18554
C         -1.54367       13.01328       -3.80504
C         -1.92701       11.82066       -3.22462
N         -2.93203       11.12351       -3.83517
C         -3.21598       11.92791       -4.93106
C         -4.21603       11.57299       -5.88253
N         -5.03669       11.24529       -6.63624
C         -2.39723       13.08137       -4.94340
C          0.14629       14.89223       -3.54630
C          0.78893       15.71859       -2.70034
C          1.95509       16.49300       -3.30311
O          2.11510       16.84140       -4.45588
C          2.85294       16.59317       -2.17941
C          4.13759       17.00751       -2.00305
S          4.66116       16.77352       -0.39437
C          3.12978       16.12541        0.09237
C          2.27132       16.11830       -0.97248
C          0.89831       15.76934       -1.21479
C         -0.11089       15.74792       -0.31768
C         -1.47574       15.75302       -0.73044
N         -2.58264       15.80245       -1.06789
C          0.12724       15.81927        1.08225
N          0.33948       15.85010        2.22507
Cl         5.21529       17.67005       -3.15666
H         -4.17551        1.14313        7.42024
H         -1.66294        0.05670        5.10083
H         -3.17571       -0.28027        5.94677
H         -1.98707        0.90474        6.61843
H         -6.27867        4.74819        4.76194
H         -6.01008        2.38871        8.33472
H         -8.99368        4.52717        8.19115
H         -7.76059        3.45247        8.83432
H         -8.74022        2.95986        7.40213
H         -3.70357        2.77314        2.91056
H         -4.65728        5.66213        3.41450
H         -3.30468        7.18446        2.09446
H         -2.11796        5.92915       -1.85420
H         -3.97205        3.22558        0.59599
H         -1.42969        8.11496        2.62554
H         -0.41235       12.04253        1.21108
H         -3.32814       10.23477       -3.54826
H         -2.43030       13.85872       -5.69674
H          0.26920       15.04600       -4.61965
H          2.98822       15.80643        1.11743
