117

C         -2.35985        3.61752        3.64441
C         -1.66515        3.85669        2.48015
C         -0.75851        2.79059        2.13098
C         -0.74869        1.83442        3.12557
S         -1.92232        2.12440        4.33715
C          0.17242        0.74477        3.18003
C          0.65346        0.05751        2.09113
C          0.23491        0.30086        0.72114
O         -0.10262       -0.64090        0.00952
N          0.40899        1.61318        0.25708
C          0.11135        2.81586        0.94816
O          0.50275        3.90766        0.53179
C          0.69514        1.78227       -1.17274
C          1.64932        0.76512       -1.79664
C          1.63954       -0.91137        2.47643
C          2.00760       -0.78407        3.80194
S          0.91831        0.25415        4.62767
C          3.06171       -1.35825        4.55834
C          4.14820       -1.90752        3.99552
C          5.08009       -2.54311        4.85716
S          4.80422       -4.18937        5.19146
C          6.16109       -4.32073        6.22261
N          6.53064       -5.54147        6.72763
C          6.17675       -6.80269        6.10440
C          6.73118       -3.05414        6.43709
C          6.17634       -2.04326        5.54992
C          6.61727       -0.65465        5.38994
O          6.68152        0.14993        6.30963
O          6.91397       -0.36636        4.08578
C          6.95860        1.02431        3.75039
C          7.87603       -2.81974        7.29830
C          8.17719       -3.61004        8.33697
C          9.45148       -3.80915        8.92251
S          9.80044       -5.47820        9.29113
C         10.96327       -5.05193       10.49113
C         11.51216       -3.84037       10.06511
C         10.61849       -3.11457        9.16378
C         10.89910       -1.84375        8.64140
C         12.16365       -1.33595        9.02022
C         12.54531       -0.06036        8.47976
N         12.83744        0.97715        8.01913
C         13.05199       -2.04808        9.89577
C         14.32316       -1.47984       10.23308
N         15.35928       -1.05162       10.51058
C         12.75279       -3.31079       10.46407
C         11.30425       -6.03524       11.51846
S         12.95294       -6.27938       11.84721
C         12.70616       -7.48529       13.00685
N         13.76662       -8.04154       13.68073
C         15.14218       -7.59277       13.49067
C         11.35493       -7.78808       13.12445
C         10.48146       -6.87098       12.30192
C          8.98432       -6.79570       12.27939
O          8.33072       -6.00669       11.60468
O          8.33400       -7.69640       13.05992
C          7.03745       -8.12342       12.61613
C         10.91479       -8.81003       14.04099
C          9.84992       -9.60740       13.91576
C          9.33931      -10.35734       14.99391
C          9.92305      -11.36000       15.71783
C          9.07110      -11.88979       16.73943
C          7.87588      -11.21910       16.80370
S          7.73996      -10.06604       15.56324
C          6.85918      -11.44208       17.78150
C          6.57347      -12.65672       18.36322
C          7.20261      -13.93234       18.03443
O          6.48156      -14.92902       17.96866
N          8.59985      -14.00358       17.88845
C          9.50043      -12.96334       17.61308
O         10.67972      -13.00778       17.98131
C          9.22784      -15.32730       17.93253
C          8.76833      -16.22797       19.06674
C          5.47789      -12.52997       19.28582
C          4.98932      -11.24264       19.40389
S          5.88063      -10.18263       18.39466
C          3.92804      -10.72004       20.19116
C          2.88907      -11.47819       20.56065
H         -3.09527        4.24986        4.12362
H         -1.78801        4.76151        1.89430
H          1.13937        2.77026       -1.34106
H         -0.26287        1.77641       -1.70585
H          2.62441        0.79080       -1.30121
H          1.79148        0.98926       -2.85873
H          1.27736       -0.26048       -1.75151
H          2.12125       -1.57992        1.77241
H          2.97798       -1.32782        5.64368
H          4.30462       -1.97174        2.92372
H          7.35305       -5.63370        7.31199
H          5.11536       -7.03025        6.23925
H          6.74640       -7.60585        6.58491
H          6.43234       -6.81854        5.03934
H          6.93070        1.09525        2.65797
H          7.87738        1.50405        4.10232
H          6.07519        1.53951        4.13960
H          8.53730       -2.01360        7.00777
H          7.41783       -4.30952        8.68192
H         10.25463       -1.29051        7.97310
H         13.47519       -3.80344       11.10402
H         13.69132       -8.99081       14.04369
H         15.22762       -6.49848       13.51864
H         15.54727       -7.95796       12.53983
H         15.77709       -7.97240       14.29764
H          7.00044       -8.23930       11.52719
H          6.26190       -7.45206       12.98603
H          6.85178       -9.12015       13.02857
H         11.54721       -8.94246       14.94355
H          9.25484       -9.60949       13.01865
H         10.92704      -11.71602       15.50998
H         10.31672      -15.22682       18.02923
H          9.06226      -15.80901       16.96034
H          8.96285      -15.75245       20.03188
H          9.29844      -17.18307       19.02462
H          7.70481      -16.46756       19.01910
H          5.07531      -13.37040       19.84072
H          3.95121       -9.67045       20.47595
H          2.79048      -12.52074       20.27323
H          2.08379      -11.05207       21.15150
