124

C          3.27123      -12.84467       -4.01762
C          2.31994      -11.92978       -4.39434
C          2.61674      -10.58286       -3.95927
C          3.77077      -10.57024       -3.21008
S          4.52552      -12.11083       -3.13526
C          4.30378       -9.42943       -2.53643
C          4.19347       -8.12724       -2.96292
C          3.51498       -7.71435       -4.17513
O          4.04928       -6.92009       -4.94476
N          2.18150       -8.13297       -4.30305
C          1.71203       -9.46498       -4.22686
O          0.53624       -9.74539       -4.46771
C          1.34004       -7.17612       -5.02812
C         -0.10379       -7.04015       -4.56170
C          4.82979       -7.22360       -2.04805
C          5.29253       -7.84816       -0.90616
S          5.09397       -9.54245       -1.04001
C          5.80208       -7.21156        0.25659
C          6.26249       -7.89349        1.32478
C          6.65202       -7.26888        2.52751
S          7.47356       -5.76881        2.42971
C          7.63851       -5.60839        4.12020
N          8.25400       -4.46540        4.50574
C          7.85483       -3.65435        5.62996
C          7.17556       -6.76219        4.75176
C          6.52898       -7.69377        3.86056
C          5.86930       -8.95043        4.26394
O          5.90233       -9.41113        5.39842
O          5.26028       -9.60600        3.23461
C          5.62216      -10.98319        3.14006
C          7.40538       -7.01982        6.15609
C          6.98700       -6.19376        7.12083
C          7.34189       -6.30040        8.47599
S          6.10617       -6.87632        9.49015
C          6.82553       -6.25271       10.91085
N          6.13952       -6.25625       12.09382
C          4.79335       -6.78861       12.20135
C          8.09253       -5.74717       10.61965
C          8.45610       -5.87355        9.19321
C          9.75731       -5.41941        8.62435
O         10.69055       -5.00902        9.30790
O          9.83088       -5.42667        7.26253
C         10.78330       -4.50630        6.70753
C          8.90597       -4.98361       11.53819
C          8.99217       -5.07534       12.87143
C          9.77457       -4.17475       13.66430
S         10.09217       -2.56455       13.16700
C         10.95454       -2.15755       14.58849
N         11.35720       -0.85774       14.68934
C         12.44983       -0.37232       15.49611
C         11.04880       -3.26380       15.42006
C         10.33524       -4.42116       14.91089
C         10.16900       -5.73035       15.54607
O          9.06806       -6.23011       15.75106
O         11.35428       -6.34600       15.81602
C         11.27639       -7.74404       16.11578
C         11.78429       -3.26073       16.64409
C         11.45586       -3.94606       17.74713
C         12.37900       -4.13327       18.80264
C         12.46551       -5.26428       19.58529
C         13.54628       -5.20654       20.50378
C         14.26752       -4.04539       20.37999
S         13.58337       -2.99024       19.24006
C         15.43583       -3.75935       21.15105
C         15.61773       -4.12062       22.47286
C         14.63899       -4.82361       23.31835
O         14.57279       -4.53805       24.51632
N         13.85555       -5.85383       22.76414
C         13.89158       -6.25189       21.43395
O         14.07759       -7.40024       21.04497
C         12.95090       -6.57089       23.66444
C         12.57473       -7.99273       23.26311
C         16.88383       -3.62870       22.94872
C         17.65649       -3.03185       21.96360
S         16.81229       -3.01506       20.47369
C         18.96381       -2.48155       22.02055
C         19.44716       -1.93406       23.14532
H          3.28300      -13.90807       -4.21688
H          1.43040      -12.19265       -4.95544
H          1.37399       -7.44227       -6.09007
H          1.78807       -6.17659       -4.93384
H         -0.70574       -7.92639       -4.77176
H         -0.58745       -6.21691       -5.09680
H         -0.15481       -6.83658       -3.48815
H          4.86940       -6.14749       -2.19151
H          5.75164       -6.12708        0.26894
H          6.31359       -8.97102        1.29413
H          8.48663       -3.86729        3.70021
H          8.12948       -4.10432        6.57307
H          6.78785       -3.42822        5.63638
H          8.41293       -2.70672        5.60829
H          4.95317      -11.60675        3.73411
H          6.66827      -11.13436        3.42993
H          5.53147      -11.26792        2.08605
H          7.94732       -7.92748        6.41804
H          6.35008       -5.35130        6.85674
H          6.64748       -6.27662       12.96879
H          4.77610       -7.85851       11.96973
H          4.10280       -6.25763       11.53581
H          4.42245       -6.65948       13.22190
H         11.71667       -5.00964        6.45561
H         10.95070       -3.64177        7.35990
H         10.37996       -4.10343        5.77718
H          9.51349       -4.21455       11.06808
H          8.46988       -5.86164       13.39798
H         11.21255       -0.30449       13.84700
H         13.40873       -0.71082       15.09174
H         12.36210       -0.65168       16.54788
H         12.44811        0.72292       15.47711
H         11.93491       -8.26088       15.41282
H         10.27227       -8.16702       16.00967
H         11.63668       -7.92605       17.13234
H         12.72674       -2.72608       16.61805
H         10.53740       -4.52334       17.79700
H         11.80159       -6.11585       19.48241
H         12.03373       -5.96987       23.72539
H         13.37926       -6.59447       24.67156
H         12.04250       -8.01190       22.30517
H         11.91324       -8.44489       24.00655
H         13.46971       -8.61777       23.17918
H         17.21779       -3.75307       23.96847
H         19.58008       -2.48594       21.12407
H         18.86610       -1.86732       24.05909
H         20.44783       -1.51447       23.16357
