98

C          1.87770       -2.42966       -6.52421
S          0.19635       -2.62961       -6.76384
C          0.05138       -1.10812       -7.54086
C         -1.27468       -0.60696       -8.01374
F         -2.30426       -1.45213       -7.75358
F         -1.58402        0.57497       -7.41609
F         -1.28033       -0.37675       -9.35139
C          1.27872       -0.47368       -7.63208
C          2.32467       -1.22158       -7.01179
C          3.68275       -0.80419       -6.92123
C          4.68849       -1.07268       -7.78686
N          4.55795       -1.85093       -8.99269
O          5.57739       -2.43909       -9.37976
O          3.47330       -1.85644       -9.58719
C          5.91657       -0.42943       -7.40779
C          5.68329        0.29656       -6.30596
C          4.28734        0.10836       -5.88982
C          3.71004        0.67444       -4.79936
C          2.35930        0.38241       -4.30743
C          2.09508        1.20018       -3.27719
C          3.24949        2.03544       -3.05688
N          3.27902        3.08179       -2.05655
O          4.36024        3.36485       -1.52290
O          2.19522        3.61347       -1.78061
C          4.26643        1.73817       -3.89723
C          5.54100        2.41908       -3.94127
C          6.71065        1.82364       -3.66469
C          7.97529        2.49714       -3.72826
N          8.85601        2.49859       -2.65615
C          8.68711        1.80637       -1.39448
C          9.33864        0.42970       -1.40024
C         10.00768        3.24534       -2.93478
O         10.95676        3.44930       -2.20408
C          9.79684        3.69814       -4.33166
C          8.52217        3.17239       -4.74477
C          8.30883        3.56040       -6.14996
O          7.37657        3.23724       -6.85678
N          9.45843        4.32972       -6.44669
C          9.69849        4.82866       -7.79415
C          8.64607        5.82573       -8.26012
C         10.33342        4.38957       -5.34481
C         11.59752        5.08914       -5.37181
C         12.45332        5.16439       -4.34429
C         13.72298        5.88512       -4.39184
C         14.85771        5.15327       -4.77255
C         16.06761        5.80881       -4.73560
C         16.17476        7.13087       -4.34898
C         17.58889        7.48674       -4.40035
O         18.02691        8.58283       -4.11544
N         18.25789        6.36562       -4.81742
C         17.40907        5.31737       -5.03534
O         17.65535        4.18333       -5.39600
C         19.69762        6.27580       -4.94221
C         20.34543        5.84481       -3.63595
C         15.07361        7.88179       -3.97748
C         13.82262        7.24993       -3.99604
C         12.63988        8.03190       -3.60436
C         12.21718        8.13255       -2.33451
C         11.08534        8.93351       -1.99501
S         11.00727        9.68238       -0.44592
C          9.52047       10.45827       -0.78649
C          8.87358       11.36753        0.20775
F          9.57334       11.51046        1.36198
F          8.70630       12.61678       -0.30285
F          7.63558       10.92552        0.55294
C          9.06002       10.11677       -2.04326
C          9.95480        9.24705       -2.73151
H          2.44507       -3.20409       -6.02467
H          1.40868        0.48923       -8.11658
H          6.85423       -0.50109       -7.93576
H          6.44983        0.88325       -5.84571
H          1.68190       -0.37983       -4.64975
H          1.19518        1.21809       -2.67974
H          5.50656        3.48265       -4.17538
H          6.74093        0.77442       -3.37952
H          7.62301        1.72589       -1.15420
H          9.15439        2.41139       -0.60961
H          8.92375       -0.20742       -2.18808
H          9.17581       -0.06668       -0.43838
H         10.41938        0.50050       -1.56510
H          9.70302        3.96772       -8.47334
H         10.67998        5.30025       -7.87598
H          7.66297        5.35496       -8.35489
H          8.91393        6.22817       -9.24306
H          8.55579        6.66088       -7.55892
H         11.87597        5.60740       -6.28492
H         12.28299        4.69874       -3.38461
H         14.80275        4.10723       -5.05883
H         20.08677        7.25425       -5.24090
H         19.93607        5.54908       -5.72566
H         20.14124        6.56626       -2.83778
H         21.42980        5.76647       -3.75839
H         19.96610        4.87050       -3.30874
H         15.18944        8.91972       -3.67607
H         12.14092        8.54547       -4.42170
H         12.75082        7.62516       -1.53142
H          8.12501       10.48233       -2.45409
H          9.77175        8.86807       -3.72992
