88

C          0.28407        0.92167        0.84338
S         -0.18567       -0.46656        1.73032
C         -0.13138       -1.49716        0.33576
C          0.21975       -0.75678       -0.77947
C          0.46616        0.62834       -0.48176
N          0.83477        1.56034       -1.39793
C          0.93586        1.01395       -2.64257
O          1.29078        1.84847       -3.68896
C          2.03669        2.98602       -3.24766
C          2.40108        3.81444       -4.46495
C          0.67588       -0.34041       -2.95963
C          0.82748       -0.82046       -4.39300
N          0.55096       -2.25978       -4.55937
N          0.31447       -1.28467       -2.03343
C         -0.45549       -2.87631        0.49338
C          0.06176       -3.81684       -0.31508
C         -0.28340       -5.23574       -0.23432
C          0.32004       -6.16598       -1.07469
N          0.02119       -7.48641       -1.05221
C         -0.93330       -7.86608       -0.16774
C         -1.53895       -6.93076        0.66775
N         -1.22696       -5.60968        0.65957
C         -1.27206       -9.29305       -0.17737
S         -1.78782      -10.06130        1.26786
C         -1.99512      -11.59107        0.51264
C         -1.67189      -11.51144       -0.82950
C         -1.20344      -10.21072       -1.20854
O         -0.78432       -9.83954       -2.44849
C         -0.03447      -10.86117       -3.10171
C         -0.95291      -11.83872       -3.81955
C         -2.16110      -12.24130       -2.98271
O         -1.79815      -12.59510       -1.64501
C         -2.46576      -12.72522        1.31256
C         -2.09604      -14.04185        1.05503
N         -2.51802      -15.09569        1.80406
C         -3.34447      -14.80169        2.83895
C         -3.71492      -13.48210        3.09033
N         -3.29085      -12.42909        2.34772
C         -3.81422      -15.93806        3.64144
S         -2.82312      -17.33806        3.82187
C         -3.97439      -18.17098        4.80000
C         -5.08817      -17.38339        5.00350
C         -4.98897      -16.10395        4.34435
N         -5.96160      -15.15354        4.39126
C         -7.03790      -15.55868        5.11427
O         -8.12737      -14.70712        5.16542
C         -7.79164      -13.32469        5.00602
C         -7.82863      -12.89327        3.54840
C         -7.14611      -16.80783        5.76829
C         -8.41864      -17.15743        6.52136
N         -8.18690      -18.08133        7.64445
N         -6.16598      -17.77434        5.74470
C         -3.65492      -19.46772        5.28294
C         -3.93783      -20.55738        4.55877
H          0.39598        1.87859        1.33184
H          2.95499        2.65329       -2.74815
H          1.44509        3.60821       -2.56600
H          2.93283        3.20773       -5.20480
H          3.03015        4.66262       -4.18058
H          1.49688        4.19493       -4.95142
H          1.85341       -0.63312       -4.72719
H          0.14291       -0.26203       -5.03935
H          1.15419       -2.75533       -3.90133
H         -0.38754       -2.42543       -4.18558
H         -1.14121       -3.15874        1.29005
H          0.77045       -3.55450       -1.09415
H          1.06707       -5.87797       -1.80631
H         -2.31523       -7.20325        1.37433
H          0.63654      -11.37528       -2.39931
H          0.61642      -10.37298       -3.83615
H         -0.36974      -12.72463       -4.09529
H         -1.31621      -11.38958       -4.75158
H         -2.62653      -13.12367       -3.43585
H         -2.93403      -11.45986       -2.98655
H         -1.42985      -14.30167        0.24003
H         -4.36824      -13.22211        3.91749
H         -6.83362      -13.07921        5.48204
H         -8.55427      -12.75754        5.55211
H         -7.13759      -13.47209        2.92940
H         -7.56462      -11.83553        3.45734
H         -8.82787      -13.04466        3.12881
H         -9.12247      -17.62028        5.82104
H         -8.89190      -16.25864        6.92959
H         -7.66740      -18.87679        7.26213
H         -7.52214      -17.64073        8.28041
H         -3.16612      -19.55523        6.24875
H         -4.42796      -20.49984        3.59135
H         -3.67768      -21.54452        4.92744
