106

C         -4.51270        0.01110        3.24130
S         -2.89625       -0.54587        3.35755
C         -3.34178       -2.18036        3.00978
C         -4.70784       -2.28416        2.84045
C         -5.37385       -1.01732        2.96353
N         -6.70835       -0.83126        2.81692
C         -7.34540       -2.00015        2.52783
O         -8.71644       -1.95044        2.32117
C         -9.23499       -0.61626        2.37353
C        -10.71608       -0.64487        2.04659
C         -6.70488       -3.26002        2.40409
C         -7.52331       -4.50782        2.11898
N         -6.76056       -5.54466        1.40066
N         -5.35008       -3.45486        2.56606
C         -2.33874       -3.18231        2.94847
C         -1.71035       -3.42907        1.78915
C         -0.73538       -4.45990        1.71153
O         -0.75314       -5.55841        2.53495
C          0.26204       -6.41611        2.20691
C          0.98639       -5.83179        1.18174
C          0.35326       -4.60619        0.86666
C          0.76998       -3.67172       -0.12202
N          1.11997       -2.91348       -0.93017
C          0.44156       -7.63376        2.90528
C          1.12820       -8.65889        2.38538
C          1.34154       -9.87046        3.10285
S          1.44902      -11.30792        2.18929
C          1.66339      -12.31350        3.56443
C          1.70006      -11.54534        4.71904
C          1.57481      -10.12761        4.44904
C          1.70946       -9.09740        5.55180
C          2.75951       -8.02888        5.26453
O          2.57600       -6.88167        5.69992
C          4.03562       -8.40440        4.51675
F          4.16263       -9.72010        4.19909
F          4.15180       -7.71873        3.34321
F          5.15050       -8.10582        5.24214
C          1.97031       -9.68966        6.94824
C          1.32114      -11.06083        7.13956
C          1.87846      -12.05959        6.12245
C          1.83319      -13.72428        3.41590
C          1.28342      -14.40336        2.39664
C          1.51263      -15.78975        2.21883
O          1.76366      -16.65157        3.26001
C          1.93445      -17.92252        2.78268
C          1.80312      -17.87717        1.40289
C          1.52395      -16.53556        1.04984
C          1.31340      -16.02675       -0.26730
N          1.14420      -15.61021       -1.33969
C          2.20180      -19.04950        3.59910
C          1.82350      -19.07428        4.88743
C          2.04815      -20.21844        5.71342
S          2.14599      -20.00804        7.42483
C          2.48229      -21.67639        7.74006
C          2.44763      -22.38663        6.55495
C          2.19428      -21.55812        5.40547
N          2.10999      -22.03735        4.13282
C          2.31270      -23.37705        4.07110
O          2.28958      -23.97709        2.82262
C          2.07848      -23.04840        1.75435
C          2.13004      -23.80188        0.43850
C          2.57421      -24.19708        5.18938
C          2.78225      -25.68942        5.01788
N          3.66907      -26.25586        6.05058
N          2.63344      -23.73507        6.48058
C          2.71970      -22.07141        9.09069
C          3.49237      -23.11882        9.40553
H         -4.75299        1.05520        3.37983
H         -8.73023        0.02181        1.63711
H         -9.10256       -0.20396        3.38103
H        -10.88136       -1.02801        1.03453
H        -11.14112        0.36132        2.11378
H        -11.25436       -1.30349        2.73495
H         -8.40471       -4.27068        1.51596
H         -7.86723       -4.92429        3.07232
H         -6.37297       -5.11476        0.55959
H         -5.93247       -5.74529        1.96813
H         -2.11802       -3.74026        3.85500
H         -1.93842       -2.85868        0.89267
H          1.87880       -6.23820        0.72386
H         -0.03831       -7.68844        3.87487
H          1.50931       -8.60676        1.36678
H          0.73951       -8.58778        5.61699
H          1.57646       -8.99637        7.70393
H          3.04718       -9.76641        7.14331
H          0.23288      -10.97186        7.02139
H          1.50531      -11.42049        8.15783
H          1.37011      -13.02160        6.24970
H          2.94724      -12.21991        6.31166
H          2.44450      -14.24028        4.15521
H          0.66934      -13.90372        1.64945
H          1.88066      -18.72329        0.73713
H          2.70364      -19.89009        3.13222
H          1.32867      -18.21059        5.32784
H          2.86346      -22.28154        1.74903
H          1.09431      -22.57542        1.85598
H          3.13353      -24.20485        0.26672
H          1.87324      -23.14033       -0.39418
H          1.43859      -24.65010        0.44693
H          3.22232      -25.91747        4.04275
H          1.80816      -26.18687        5.07737
H          4.55628      -25.75318        6.00384
H          3.27769      -25.96726        6.95236
H          2.27807      -21.48526        9.89344
H          3.98700      -23.72965        8.65665
H          3.65775      -23.39070       10.44279
