116

C          1.31040        4.89139       -2.86781
C         -0.10424        4.50079       -3.18979
O         -0.72672        4.84174       -4.18031
O         -0.58614        3.66102       -2.22337
C          0.47135        3.33848       -1.30321
C          1.38970        4.54047       -1.39325
C          2.78679        4.31296       -0.83601
C          3.43249        2.99365       -1.25085
C          2.52172        1.76855       -1.21922
C          1.11563        2.00947       -1.73155
O          0.34686        0.91097       -1.21936
C          0.97742        0.34422       -0.14729
O          0.49896       -0.55778        0.52102
C          2.31368        1.02069        0.09758
C          2.24378        1.82598        1.36402
C          3.04258        1.60253        2.42156
C          2.96985        2.36477        3.67379
C          3.32147        1.74483        4.87645
C          3.26073        2.47234        6.07807
N          3.60224        1.75181        7.29385
O          4.72316        1.22815        7.33892
O          2.73686        1.68145        8.17638
C          2.86672        3.81783        6.11427
C          2.56580        4.43102        4.89298
C          2.61045        3.71539        3.69432
C          2.82433        4.62317        7.35262
C          1.98690        5.65703        7.53289
C          1.90833        6.45229        8.72434
N          0.72695        7.06998        9.14319
C         -0.56321        6.98560        8.48221
C         -0.75042        8.05562        7.41575
C          0.91553        7.79234       10.34155
O          0.12785        8.44006       10.99517
C          2.34523        7.57364       10.63289
C          2.88711        6.75679        9.58173
C          4.31734        6.54464        9.86128
O          5.11541        5.91196        9.20120
N          4.50129        7.23681       11.07538
C          5.78572        7.23443       11.74564
C          6.71146        8.32769       11.23404
C          3.31606        7.83803       11.50953
C          3.18332        8.57615       12.73615
C          3.84922        9.71289       12.99392
C          3.84480       10.47346       14.21727
C          3.12825       10.10014       15.33726
S          3.39977       11.12504       16.67585
C          4.48009       12.09054       15.77954
C          4.60686       11.68442       14.46040
C          5.42044       12.46740       13.52602
O          6.36393       13.16503       13.87489
O          4.91258       12.39528       12.25097
C          5.55469       13.20862       11.32440
C          4.88300       14.13999       10.63703
C          5.44466       15.06408        9.58776
C          6.91812       14.86978        9.25688
O          7.47816       13.80679        9.04154
O          7.54369       16.07981        9.18030
C          6.58231       17.14040        9.29024
C          5.41283       16.52528       10.03850
C          4.07232       17.24518        9.85989
C          3.80257       17.79840        8.46290
C          4.98649       18.45447        7.76386
C          6.26947       17.66261        7.88199
O          7.29095       18.58544        7.47758
C          6.86635       19.87109        7.67522
O          7.58128       20.84906        7.52512
C          5.40973       19.88524        8.11535
C          5.32703       20.36036        9.54159
C          5.13286       21.64261        9.88103
H          1.46160        5.96107       -3.03299
H          1.99376        4.30605       -3.48898
H          0.02425        3.26053       -0.30657
H          0.93133        5.37382       -0.84041
H          2.73649        4.35584        0.25728
H          3.44146        5.14151       -1.13456
H          4.32842        2.81563       -0.64382
H          3.79133        3.11379       -2.28160
H          2.98212        1.02863       -1.89290
H          1.10236        1.92064       -2.82441
H          3.07722        0.23669        0.17899
H          1.46894        2.58533        1.42708
H          3.77847        0.80084        2.39604
H          3.62417        0.69942        4.88878
H          2.29903        5.48464        4.83880
H          2.36812        4.24661        2.77723
H          3.51099        4.32611        8.14302
H          1.28576        5.92788        6.75001
H         -1.34860        7.09939        9.23762
H         -0.68424        5.98827        8.04501
H         -0.71005        9.05867        7.85160
H         -1.72335        7.93509        6.92722
H          0.02275        7.99691        6.64280
H          6.26279        6.26570       11.55275
H          5.64506        7.30935       12.82842
H          6.83416        8.26984       10.14774
H          7.69793        8.23706       11.69837
H          6.32909        9.32382       11.46432
H          2.49308        8.14483       13.45651
H          4.48115       10.08449       12.19428
H          2.45806        9.26105       15.46075
H          4.94917       12.94701       16.24853
H          6.60522       12.95829       11.22378
H          3.82366       14.25776       10.86073
H          4.88553       14.92979        8.65425
H          7.05076       17.92271        9.89695
H          5.65420       16.55002       11.11203
H          4.01982       18.07055       10.57739
H          3.24615       16.57969       10.14007
H          2.95437       18.49287        8.49619
H          3.47441       16.95710        7.83670
H          4.73024       18.48921        6.69249
H          6.27386       16.83932        7.15737
H          4.86426       20.57420        7.45750
H          5.47935       19.65444       10.35047
H          5.03702       22.42653        9.13438
H          5.11494       21.94820       10.92367
