116

C          5.90661        0.84879       -0.22341
C          6.13223        1.69888       -1.43869
O          7.11337        1.64852       -2.16681
O          5.05502        2.51335       -1.64678
C          4.01779        2.18106       -0.70621
C          4.78257        1.59933        0.46588
C          3.94284        0.77924        1.43354
C          2.95683       -0.17752        0.76782
C          2.19144        0.37976       -0.43033
C          3.03358        1.20858       -1.37774
O          2.08094        1.94347       -2.16024
C          0.88726        2.02711       -1.50014
O         -0.05463        2.70028       -1.88639
C          0.94034        1.22808       -0.20800
C          0.92034        2.18089        0.95169
C          0.38067        1.87761        2.14377
C          0.34981        2.83812        3.19069
S          0.40617        2.32732        4.82631
C          0.35636        3.94171        5.44295
C          0.26038        4.84388        4.39439
C          0.26148        4.21371        3.11797
C          0.15577        6.26319        4.54561
N          0.11141        7.41748        4.67283
C          0.38533        4.11318        6.86104
C          0.90010        5.20857        7.44085
C          0.93350        5.42294        8.85791
N          2.11863        5.65546        9.56066
C          3.45603        5.71486        9.00160
C          3.85576        7.12439        8.59088
C          1.87489        5.86022       10.93445
O          2.64512        6.07947       11.84262
C          0.40975        5.74800       11.01740
C         -0.10171        5.47836        9.70230
C         -1.57479        5.39206        9.80218
O         -2.35746        5.15422        8.91162
N         -1.80796        5.64059       11.17490
C         -3.14405        5.61724       11.74443
C         -3.55473        4.23596       12.22436
C         -0.61152        5.83093       11.86707
C         -0.51468        6.09131       13.26902
C         -1.10850        7.13617       13.85898
C         -1.03906        7.36947       15.26924
C         -2.12581        7.43185       16.06633
C         -1.67316        7.66696       17.44069
C         -0.20444        7.75497       17.35875
C          0.14764        7.56311       16.07834
C          0.73507        7.95835       18.39263
N          1.50132        8.13005       19.24824
C         -2.46389        7.74850       18.53229
C         -1.99434        8.00880       19.89165
C         -3.04132        7.95415       20.73780
C         -4.23590        7.67687       19.95158
C         -3.91714        7.57347       18.64866
C         -4.86258        7.31362       17.62667
N         -5.63364        7.11081       16.78442
C         -2.98701        8.17514       22.22662
C         -4.21953        7.71019       22.98179
O         -4.80830        6.65273       22.82340
O         -4.58088        8.64059       23.91306
C         -3.63182        9.71969       23.94702
C         -2.92860        9.65721       22.60149
C         -1.53613       10.29201       22.55422
C         -0.69840       10.17920       23.82441
C         -1.44798       10.34058       25.13799
C         -2.73835        9.55677       25.18350
O         -3.40985       10.07306       26.34192
C         -2.95177       11.33131       26.63061
O         -3.40762       12.02203       27.52851
C         -1.84355       11.73169       25.65768
C         -2.28618       12.78405       24.66789
C         -3.21752       13.72549       24.88141
H          6.80444        0.81872        0.39905
H          5.62357       -0.15964       -0.53682
H          3.52017        3.11527       -0.42192
H          5.24541        2.42530        1.02606
H          3.39444        1.46649        2.08658
H          4.60415        0.20536        2.09529
H          2.25992       -0.57035        1.51773
H          3.53044       -1.04526        0.41555
H          1.83738       -0.49431       -0.99924
H          3.56871        0.54735       -2.06942
H          0.05809        0.57647       -0.18230
H          1.32584        3.17664        0.77565
H         -0.02500        0.88612        2.33510
H          0.18022        4.75584        2.18165
H         -0.00873        3.30681        7.47911
H          1.35064        6.00891        6.86182
H          3.53183        5.03050        8.15014
H          4.16039        5.36169        9.76375
H          3.16600        7.53569        7.84733
H          4.86146        7.12185        8.15746
H          3.86084        7.80003        9.45260
H         -3.84995        5.95452       10.97783
H         -3.22204        6.33101       12.56791
H         -3.61118        3.53306       11.38776
H         -4.54072        4.28231       12.69851
H         -2.84453        3.83684       12.95558
H          0.09303        5.39471       13.84547
H         -1.69583        7.84638       13.28042
H         -3.13833        7.30987       15.71782
H          1.15209        7.54789       15.67832
H         -0.98797        8.24264       20.18943
H         -5.22980        7.55912       20.36356
H         -2.13584        7.63113       22.65605
H         -4.21528       10.64388       24.02098
H         -3.55581       10.20381       21.88113
H         -1.65404       11.34742       22.29494
H         -0.94877        9.87877       21.72820
H          0.13880       10.88629       23.77982
H         -0.24213        9.17921       23.82704
H         -0.79073        9.92344       25.91896
H         -2.53541        8.49610       25.37448
H         -0.99755       12.13256       26.22931
H         -1.75401       12.84278       23.72390
H         -3.74878       13.82050       25.82585
H         -3.45519       14.46621       24.12313
