116

C         -1.44471       -0.26858        3.17478
C         -2.59533       -0.79363        3.98210
O         -3.39281       -0.11362        4.60279
O         -2.60507       -2.16171        3.94912
C         -1.43307       -2.62501        3.26366
C         -1.08689       -1.47732        2.33296
C          0.33803       -1.49838        1.80150
C          1.37679       -1.74333        2.88790
C          1.06895       -2.96040        3.75708
C         -0.34704       -2.96745        4.30257
O         -0.53786       -4.32048        4.74790
C          0.27721       -5.15270        4.02665
O          0.26639       -6.36959        4.12411
C          1.13238       -4.32402        3.07605
C          2.51917       -4.87340        2.93802
C          3.46938       -4.34420        2.15139
C          4.80498       -4.91899        2.00675
C          5.89208       -4.09217        1.71179
C          7.14601       -4.66749        1.45852
N          8.24238       -3.75484        1.19714
O          8.48298       -2.90353        2.07047
O          8.84296       -3.85817        0.12029
C          7.33603       -6.05886        1.45900
C          6.24879       -6.85459        1.84540
C          4.99892       -6.29785        2.08850
C          8.59382       -6.72816        1.11009
C          8.63033       -7.93893        0.52830
C          9.85370       -8.61250        0.23323
N         10.20917       -9.06818       -1.03213
C          9.48414       -8.80561       -2.26086
C          8.50545       -9.90597       -2.63114
C         11.49892       -9.63377       -1.01983
O         12.14143      -10.10721       -1.94457
C         11.94289       -9.42925        0.37982
C         10.84877       -8.84579        1.08733
C         11.25062       -8.59757        2.47835
O         10.58879       -8.09840        3.35961
N         12.60380       -8.99302        2.46884
C         13.47241       -8.61381        3.56571
C         13.46238       -9.59474        4.72503
C         12.98948       -9.48856        1.21233
C         14.31996       -9.95413        0.91516
C         14.88719       -9.87057       -0.30144
C         16.18887      -10.35221       -0.67596
C         16.77387      -11.43123       -0.04717
S         18.30176      -11.82496       -0.69378
C         18.19425      -10.56772       -1.83991
C         17.01304       -9.84335       -1.75818
C         16.75952       -8.72995       -2.68940
O         17.55380       -8.40195       -3.56109
O         15.56491       -8.10566       -2.43984
C         15.21775       -7.07141       -3.30420
C         14.74817       -5.91408       -2.82592
C         14.34840       -4.70567       -3.62520
C         15.08643       -4.62451       -4.95508
O         14.92735       -5.37276       -5.90741
O         16.00271       -3.61119       -4.93253
C         16.03092       -2.99451       -3.63707
C         14.68515       -3.33003       -3.03151
C         14.61097       -3.10929       -1.52146
C         15.81384       -3.58876       -0.71179
C         17.17031       -3.30252       -1.34626
C         17.24581       -3.49650       -2.84716
O         18.39872       -2.72705       -3.23430
C         18.62170       -1.72699       -2.32544
O         19.42825       -0.82646       -2.49193
C         17.66630       -1.87246       -1.15210
C         18.33207       -1.57446        0.17094
C         18.45893       -2.40076        1.22036
H         -0.64947        0.03519        3.85986
H         -1.75568        0.57279        2.55150
H         -1.71804       -3.51293        2.68814
H         -1.77697       -1.50025        1.47789
H          0.56237       -0.55414        1.29176
H          0.42251       -2.28368        1.03969
H          1.44548       -0.85859        3.53107
H          2.36196       -1.82822        2.42430
H          1.76882       -2.96066        4.60660
H         -0.42255       -2.31758        5.18210
H          0.62317       -4.34053        2.10572
H          2.72964       -5.77199        3.51788
H          3.28272       -3.45990        1.55120
H          5.77014       -3.01110        1.67059
H          6.34510       -7.93306        1.95542
H          4.17705       -6.97145        2.32142
H          9.51747       -6.19534        1.32864
H          7.72829       -8.48700        0.26877
H         10.21012       -8.69029       -3.07444
H          8.95795       -7.84735       -2.17271
H          9.03353      -10.82034       -2.91881
H          7.89297       -9.58892       -3.48263
H          7.83628      -10.14648       -1.79988
H         13.12200       -7.64466        3.94359
H         14.49156       -8.45440        3.19913
H         12.48154       -9.62308        5.21175
H         14.19623       -9.28506        5.47768
H         13.71029      -10.60787        4.39753
H         14.86166      -10.39942        1.74207
H         14.30964       -9.41061       -1.09309
H         16.37390      -12.03329        0.75671
H         19.00536      -10.41703       -2.53969
H         15.33060       -7.34225       -4.34869
H         14.61378       -5.86004       -1.75180
H         13.26908       -4.74444       -3.81748
H         16.10864       -1.91394       -3.80399
H         13.95376       -2.63730       -3.47812
H         13.69392       -3.55447       -1.11695
H         14.51441       -2.02846       -1.34989
H         15.74427       -4.66444       -0.53094
H         15.75684       -3.13936        0.28766
H         17.90542       -3.99137       -0.90643
H         17.46104       -4.54482       -3.08440
H         16.85366       -1.15258       -1.31237
H         18.75822       -0.57387        0.26127
H         18.07336       -3.41504        1.22730
H         18.97012       -2.07944        2.12302
