85

C         -8.03205       -4.46320       -1.83561
S         -6.53364       -5.19897       -2.22818
C         -6.59806       -6.27465       -0.87190
C         -7.75735       -6.06590       -0.15134
C         -8.57644       -5.02244       -0.70829
C         -9.79800       -4.60318       -0.17858
C        -10.14265       -5.32598        0.99640
C        -11.38656       -4.97002        1.60906
N        -12.40197       -4.66725        2.08693
C         -9.34051       -6.37622        1.55170
C         -9.77151       -7.07250        2.73604
N        -10.09707       -7.65584        3.68553
C         -8.09917       -6.79332        0.99460
C         -5.54943       -7.22087       -0.71303
C         -4.47160       -6.94503        0.04131
C         -3.37013       -7.84678        0.18825
S         -3.34238       -9.44077       -0.54605
C         -1.79575       -9.84158        0.08495
C         -1.31196       -8.79717        0.81238
C         -2.18390       -7.69830        0.86750
C         -1.54596       -6.70695        1.65920
C         -0.32683       -7.12666        2.08354
C         -0.11321       -8.53641        1.56231
O          0.83428       -9.27574        1.75121
C          0.58945       -6.39796        2.92730
C          1.92557       -6.56153        2.94679
C          2.80341       -5.78379        3.77669
S          2.41928       -4.15135        4.18664
C          3.84507       -3.87592        5.11905
C          4.62707       -5.01845        5.09973
C          4.04102       -6.09718        4.31648
C          4.65593       -7.35105        4.14754
C          5.89912       -7.47272        4.82505
C          6.59331       -8.72931        4.70997
N          7.14945       -9.74123        4.61466
C          6.46935       -6.41757        5.60974
C          7.71595       -6.61091        6.30350
N          8.71011       -6.72790        6.88882
C          5.85307       -5.15162        5.77165
C          4.03925       -2.57290        5.73763
S          5.60360       -1.81790        5.89461
C          4.98564       -0.40355        6.65949
C          3.62868       -0.48903        6.74933
C          3.11331       -1.69057        6.23589
C          1.70915       -1.64007        6.40621
C          1.32568       -0.48815        7.00171
C          2.57042        0.34521        7.25008
O          2.64599        1.45512        7.74629
C          0.00371       -0.05627        7.36327
C         -1.10923       -0.80300        7.24917
C         -2.40612       -0.32022        7.60769
S         -2.59161        0.85175        8.86366
C         -4.30211        0.97385        8.69564
C         -4.72678        0.11835        7.69639
C         -3.65475       -0.66258        7.11523
C         -3.85948       -1.62160        6.10720
C         -5.22097       -1.75005        5.71407
C         -5.51411       -2.71373        4.68747
N         -5.71483       -3.49510        3.85141
C         -6.27725       -0.96051        6.27857
C         -7.63647       -1.13918        5.84684
N         -8.74487       -1.26374        5.52452
C         -6.06084        0.01700        7.27877
C         -4.95509        1.89710        9.56497
C         -6.19513        1.71447       10.03320
H         -8.42020       -3.66763       -2.45766
H        -10.41059       -3.81436       -0.60120
H         -7.49479       -7.58215        1.42973
H         -5.66587       -8.15418       -1.25511
H         -4.40961       -5.98836        0.55753
H         -1.34272      -10.80281       -0.11217
H         -1.97867       -5.73873        1.87416
H          0.11291       -5.66183        3.57039
H          2.38808       -7.30389        2.29857
H          4.23582       -8.16847        3.56967
H          6.31923       -4.38930        6.38269
H          5.63850        0.39738        6.98049
H          1.03599       -2.42775        6.10419
H         -0.03467        0.96068        7.75458
H         -1.05295       -1.80859        6.84395
H         -3.07621       -2.22006        5.65488
H         -6.87427        0.62183        7.65935
H         -4.39762        2.77017        9.90272
H         -6.79564        0.84140        9.80849
H         -6.64140        2.44927       10.69502
