70

C         -7.42411       -4.46239        4.06827
S         -6.86521       -5.91969        3.36444
C         -5.21267       -5.37534        3.28884
C         -5.12073       -4.10503        3.83138
C         -6.39347       -3.57861        4.25401
C         -6.58385       -2.32165        4.82161
C         -5.37228       -1.58803        4.92924
C         -5.45904       -0.27107        5.48118
N         -5.54760        0.79492        5.92906
C         -4.09318       -2.10480        4.52148
C         -2.90459       -1.30390        4.63520
N         -1.90995       -0.70735        4.68271
C         -3.91979       -3.39962        3.98033
C         -4.25145       -6.28491        2.75400
C         -3.14973       -5.88628        2.09350
C         -2.17865       -6.80999        1.64604
S         -2.50841       -8.43842        1.16732
C         -0.85011       -8.81623        0.80770
C         -0.12400       -7.69043        1.05224
C         -0.85514       -6.61361        1.49140
N         -0.04571       -5.53430        1.70738
C          1.20746       -6.08496        1.35897
N          1.20441       -7.37475        0.96012
C         -0.44038      -10.10562        0.34895
S         -1.50204      -11.45183        0.07823
C         -0.22722      -12.53173       -0.40986
C          0.93794      -11.83188       -0.34036
C          0.79883      -10.52583        0.04768
N          2.00101       -9.88537        0.07021
C          2.84562      -10.93167       -0.34281
N          2.25211      -12.12542       -0.57731
C         -0.46196      -13.89398       -0.76550
S         -1.92640      -14.52402       -1.42517
C         -1.34824      -16.19018       -1.50037
C         -0.07095      -16.16806       -1.02028
C          0.38802      -14.92512       -0.65990
N          1.67777      -14.97036       -0.22337
C          1.92521      -16.34820       -0.33804
N          0.90538      -17.10295       -0.80687
C         -2.18521      -17.26417       -2.00052
S         -3.89219      -17.17309       -1.75385
C         -4.25055      -18.63237       -2.59818
C         -3.06505      -19.22150       -2.99924
C         -1.88380      -18.43874       -2.66809
C         -0.58636      -18.84347       -3.01978
C         -0.53531      -20.09438       -3.68858
C          0.76998      -20.58442       -4.04557
N          1.82429      -20.97291       -4.33167
C         -1.70471      -20.86550       -4.01037
C         -1.57388      -22.12535       -4.69499
N         -1.49868      -23.14379       -5.24476
C         -3.02025      -20.44677       -3.68531
C         -5.60463      -19.07524       -2.73492
C         -6.63919      -18.23092       -2.85411
H         -8.47251       -4.34674        4.30963
H         -7.54144       -1.93084        5.14870
H         -2.93648       -3.77353        3.72794
H         -4.45226       -7.34405        2.91009
H         -2.96343       -4.83895        1.88828
H         -0.27530       -4.60368        2.02693
H          2.09877       -5.47049        1.42268
H          2.18429       -8.91350        0.31380
H          3.90614      -10.74345       -0.45668
H          2.27195      -14.19080        0.04654
H          2.89741      -16.73740       -0.06219
H          0.31580      -18.28285       -2.80671
H         -3.89223      -21.03492       -3.95060
H         -5.79957      -20.14431       -2.76172
H         -6.52186      -17.15113       -2.86243
H         -7.65260      -18.60577       -2.95356
