89

C         -0.37011       -0.56262        5.78370
C          0.23972        0.50367        6.32209
C          1.59648        0.85756        6.03642
S          2.75838       -0.36472        5.68418
C          4.06083        0.72480        5.41707
C          5.38356        0.17444        5.13810
S          6.71251        0.84373        5.97648
C          7.89586       -0.22185        5.31814
C          9.28260       -0.05530        5.65240
C          9.70279        0.90959        6.49370
C         11.06358        1.23871        6.77433
S         12.36114        0.43840        5.99357
C         13.59970        1.33235        6.78631
C         14.99266        0.98881        6.51046
S         16.13524        2.23625        6.18541
C         17.49543        1.17076        6.01708
C         18.75490        1.80960        5.75617
C         19.87375        1.16455        5.39819
C         21.10183        1.84808        5.21258
S         22.15102        2.06315        6.57065
C         23.37896        2.78991        5.62125
C         23.00671        2.86147        4.30399
C         23.83371        3.40262        3.32354
C         23.23771        3.35454        2.03612
C         24.00525        3.90941        0.95600
N         24.64328        4.36560        0.10241
C         21.93222        2.79424        1.78002
C         21.40395        2.78462        0.44121
N         20.95421        2.76728       -0.62695
C         21.10821        2.24025        2.79534
C         21.70238        2.31130        4.06072
C         17.05843       -0.13419        6.18574
C         17.90020       -1.25979        6.15708
C         17.24605       -2.50871        6.28205
C         18.08747       -3.66950        6.22831
N         18.81882       -4.57269        6.17501
C         15.83942       -2.62072        6.45450
C         15.23717       -3.91988        6.57156
N         14.72347       -4.95548        6.67181
C         14.97966       -1.49830        6.53667
C         15.62139       -0.24531        6.39932
C         13.01718        2.32209        7.56823
C         13.71762        3.30030        8.29794
C         12.88740        4.16942        9.06084
C         13.55236        5.17707        9.83883
N         14.11723        5.97668       10.46359
C         11.45875        4.06660        9.09590
C         10.68452        4.96320        9.91555
N         10.03508        5.66353       10.57286
C         10.74553        3.09144        8.35405
C         11.56596        2.23364        7.59495
C          7.25966       -1.13156        4.49095
C          7.93454       -2.16909        3.81999
C          7.09476       -2.96739        3.00405
C          7.73316       -4.02348        2.25165
N          8.28026       -4.84666        1.65199
C          5.67957       -2.75465        2.89647
C          4.88450       -3.61472        2.06329
N          4.21665       -4.29255        1.39835
C          4.99483       -1.71254        3.58120
C          5.82049       -0.90273        4.37808
C          3.62783        2.02589        5.64878
C          4.42961        3.18217        5.54391
C          3.76217        4.39320        5.87677
C          4.53563        5.60501        5.78262
N          5.18663        6.56013        5.69186
C          2.38787        4.44493        6.28271
C          1.77910        5.70987        6.60253
N          1.26669        6.71984        6.86403
C          1.56836        3.28796        6.37731
C          2.22905        2.08989        6.04630
H         -1.40018       -0.79439        6.03637
H          0.11111       -1.23695        5.08115
H         -0.33050        1.13697        6.99628
H          9.99320       -0.71403        5.16437
H          8.97735        1.54756        6.98311
H         18.79497        2.89611        5.84784
H         19.94025        0.10556        5.22369
H         24.29972        3.11192        6.08867
H         24.81716        3.81798        3.50975
H         20.12897        1.81975        2.59320
H         18.97550       -1.24999        6.08103
H         13.91767       -1.64371        6.68924
H         14.79279        3.42077        8.30551
H          9.66241        3.04034        8.40036
H          8.99895       -2.36904        3.89765
H          3.92363       -1.58524        3.47137
H          5.46829        3.19443        5.23322
H          0.52959        3.35101        6.68128
