116

C          0.24934       -0.91079        4.42329
C          0.26511       -0.46834        3.15978
C         -0.97520        0.22354        2.88981
O         -1.14767        0.90426        1.71773
C         -0.76563        0.21385        0.53305
C         -1.80104        0.22398        3.97443
C         -1.03591       -0.53090        5.02502
C         -1.33987       -0.87111        6.29613
C         -0.38172       -1.46352        7.23995
C         -1.01213       -1.60919        8.41873
O         -0.57804       -2.02969        9.63542
C          0.83680       -2.09045        9.79100
C         -2.38547       -1.18146        8.28394
C         -2.58835       -0.72948        7.03376
C         -3.06419        0.95806        4.06792
C         -3.78697        1.42479        3.03272
C         -5.10862        2.04310        3.02171
C         -5.38366        3.26142        2.48552
N         -4.41593        4.19747        1.95186
O         -4.70142        5.39843        2.04800
O         -3.41199        3.75627        1.37387
C         -6.80299        3.47594        2.30378
C         -7.45732        2.36421        2.66453
C         -6.48209        1.39673        3.18988
C         -6.77023        0.16161        3.68743
C         -5.81447       -0.63932        4.42172
C         -6.33456       -1.85558        4.64197
C         -7.68571       -1.86782        4.13475
N         -8.51615       -3.03555        4.37958
O         -9.74570       -2.93575        4.37683
O         -7.91226       -4.09303        4.61744
C         -8.04191       -0.66437        3.60861
C         -9.35535       -0.22302        3.19860
C        -10.28860       -0.92240        2.53536
C        -11.59758       -0.39920        2.38408
S        -12.54795       -0.04791        3.81853
C        -13.80315        0.32880        2.79686
C        -13.60455        0.24230        1.46716
C        -12.28656       -0.18811        1.19097
N        -14.79155        0.59552        0.89575
C        -15.04078        0.65982       -0.51906
C        -15.71558        0.87968        1.86261
C        -15.06956        0.70575        3.03434
S        -15.89750        0.96470        4.45298
C        -17.27761        1.36453        3.45993
C        -17.05258        1.27330        2.08940
C        -18.44647        1.80200        4.12135
C        -19.35722        0.92432        4.56254
C        -20.54260        1.33303        5.32287
C        -21.50998        0.40681        5.70063
N        -22.62449        0.71053        6.41209
C        -22.79150        2.00116        6.77525
C        -21.86859        2.98803        6.45806
C        -20.74239        2.64802        5.73057
C        -24.03552        2.29598        7.48874
C        -24.44627        3.53752        7.77482
C        -25.69493        3.87813        8.39560
C        -25.69655        4.40546        9.63280
C        -27.02396        4.83214        9.99629
O        -27.14669        5.20667       11.29872
C        -27.96329        6.31839       11.62627
C        -27.90541        4.60428        8.97783
C        -27.06679        4.03541        7.86110
C        -27.42541        3.77954        6.57814
C        -26.77545        2.89529        5.61231
C        -27.59053        2.80599        4.54329
O        -27.40457        2.00883        3.45107
C        -28.60148        1.46717        2.89438
C        -28.68880        3.73291        4.69011
C        -28.57608        4.34082        5.88166
C        -29.34742        4.67001        9.17561
C        -30.34904        4.16586        8.44822
H          1.04734       -1.46406        4.88946
H          1.08623       -0.58561        2.47278
H         -1.07787        0.82225       -0.32128
H         -1.26476       -0.75824        0.46047
H          0.32042        0.09739        0.47155
H          0.65248       -1.68282        7.04217
H          1.05339       -2.52863       10.76995
H          1.26491       -1.08193        9.76930
H          1.30675       -2.72394        9.03159
H         -3.11014       -1.23786        9.08123
H         -3.53263       -0.38050        6.66388
H         -3.44145        1.09704        5.07385
H         -3.37198        1.35148        2.02882
H         -7.23599        4.37948        1.89412
H         -8.52535        2.26735        2.60665
H         -4.91603       -0.32054        4.88202
H         -5.88792       -2.63098        5.24233
H         -9.62246        0.77687        3.54545
H        -10.11765       -1.92441        2.15878
H        -11.86736       -0.35501        0.20866
H        -14.20342        0.21392       -1.06226
H        -15.15242        1.71003       -0.80219
H        -15.95636        0.10525       -0.74068
H        -17.79407        1.49434        1.33237
H        -18.51961        2.87142        4.26063
H        -19.22603       -0.13986        4.38793
H        -21.42271       -0.64402        5.43573
H        -21.99059        4.02398        6.74500
H        -20.04395        3.44515        5.50421
H        -24.65469        1.43350        7.72029
H        -23.84243        4.41222        7.55363
H        -24.83903        4.53495       10.27651
H        -27.68456        6.64138       12.63483
H        -29.01557        6.03940       11.68538
H        -27.80910        7.15928       10.94383
H        -25.89401        2.29838        5.73860
H        -28.32210        0.78423        2.08635
H        -29.22623        2.25166        2.45620
H        -29.16606        0.89738        3.64106
H        -29.42021        3.96558        3.93577
H        -29.17711        5.16489        6.22592
H        -29.67370        5.12343       10.10144
H        -30.21996        3.59802        7.53958
H        -31.37328        4.29469        8.78414
