130

C         -0.45317       -4.93556        6.59232
C         -0.05124       -3.99320        5.72924
C         -1.06540       -2.96279        5.63101
O         -0.88444       -2.07935        4.61264
C         -0.98686       -0.69841        4.91748
C         -2.11565       -3.22811        6.46205
C         -1.76002       -4.53015        7.11116
C         -2.44755       -5.26211        8.00997
C         -2.07591       -6.60609        8.46035
C         -3.04148       -7.02136        9.30033
O         -3.25110       -8.20923        9.92558
C         -2.65205       -9.33375        9.28777
C         -4.02079       -5.97146        9.47371
C         -3.69152       -4.92405        8.69830
C         -3.40319       -2.55467        6.46302
C         -3.58738       -1.25304        6.73285
C         -4.85872       -0.54709        6.74602
C         -5.33139        0.16121        7.80431
N         -4.63482        0.33341        9.06410
O         -5.33861        0.42019       10.07899
O         -3.40072        0.42841        9.05458
C         -6.65818        0.67791        7.56669
C         -7.05711        0.30206        6.33982
C         -5.96685       -0.45470        5.71119
C         -5.96521       -0.90399        4.43105
C         -4.74690       -1.36664        3.76050
C         -5.04556       -1.71532        2.50637
C         -6.45963       -1.53013        2.31265
N         -7.07364       -1.87991        1.05416
O         -8.06742       -2.61833        1.06758
O         -6.47668       -1.51894        0.03013
C         -7.07775       -1.02422        3.40895
C         -8.48579       -0.68213        3.53577
C         -9.51066       -1.52402        3.30940
C        -10.91013       -1.18984        3.46218
C        -11.80739       -0.93700        2.47554
N        -11.49247       -0.93768        1.06754
O        -12.37642       -1.36883        0.30829
O        -10.41957       -0.44068        0.70692
C        -13.10433       -0.57028        2.99572
C        -13.02572       -0.52366        4.33518
C        -11.66486       -0.92277        4.71847
C        -11.21015       -1.05425        5.98253
C        -10.00830       -1.79067        6.36768
C         -9.90963       -1.74163        7.70219
C        -11.01344       -0.95690        8.21706
N        -11.05802       -0.54723        9.60337
O         -9.96706       -0.44222       10.18080
O        -12.16061       -0.42493       10.15162
C        -11.83228       -0.52244        7.22948
C        -12.82060        0.53704        7.29225
C        -13.90788        0.58554        8.07499
C        -14.76358        1.74974        8.19438
C        -14.38608        3.00949        8.53929
N        -13.02818        3.45125        8.79191
O        -12.79913        4.65599        8.59586
O        -12.18833        2.64643        9.18226
C        -15.52282        3.89504        8.68007
C        -16.64238        3.19423        8.48488
C        -16.26531        1.81010        8.17083
C        -17.14703        0.83122        7.86349
C        -16.80941       -0.45890        7.26526
C        -17.95709       -1.10321        7.00282
C        -19.06008       -0.28644        7.45939
N        -20.41167       -0.79043        7.53090
O        -20.53939       -1.99760        7.77992
O        -21.34468       -0.02060        7.27583
C        -18.63854        0.87531        8.00693
C        -19.41285        1.77739        8.83901
C        -20.44706        2.53649        8.44391
C        -21.21536        3.37169        9.34466
C        -21.74683        2.87891       10.48298
C        -22.65345        3.82893       11.08809
O        -23.16122        3.42992       12.28250
C        -24.41853        3.93715       12.69401
C        -22.73861        4.95636       10.33166
C        -21.85436        4.69577        9.14670
C        -21.62849        5.52924        8.10937
C        -20.48130        5.49138        7.20588
C        -20.54562        6.60160        6.44541
O        -19.67854        7.14453        5.55287
C        -18.41960        6.49001        5.45851
C        -21.76388        7.32305        6.73176
C        -22.42060        6.68967        7.71498
C        -23.38692        6.18642       10.74533
C        -22.79183        7.38870       10.75562
H          0.10768       -5.81396        6.86674
H          0.87575       -3.98912        5.17749
H         -0.29291       -0.15555        4.26858
H         -0.73260       -0.46699        5.95556
H         -1.98621       -0.33743        4.67194
H         -1.21932       -7.17105        8.13764
H         -2.85974      -10.22023        9.89478
H         -1.56546       -9.23147        9.20391
H         -3.10122       -9.48934        8.30030
H         -4.86918       -6.04386       10.13536
H         -4.22083       -3.99226        8.64525
H         -4.25380       -3.19638        6.24164
H         -2.72270       -0.65672        7.01842
H         -7.20307        1.29153        8.27127
H         -7.98692        0.60965        5.89561
H         -3.74518       -1.35831        4.14292
H         -4.35106       -2.04322        1.74613
H         -8.69669        0.34131        3.84106
H         -9.33926       -2.55968        3.01979
H        -13.98035       -0.39572        2.38898
H        -13.85752       -0.33586        4.99522
H         -9.33676       -2.34066        5.73037
H         -9.13425       -2.18795        8.30645
H        -12.59953        1.37781        6.63223
H        -14.17034       -0.25464        8.71616
H        -15.44938        4.95151        8.90480
H        -17.63247        3.61835        8.48928
H        -15.82795       -0.83667        7.02583
H        -18.06266       -2.08342        6.55919
H        -19.07109        1.84035        9.87301
H        -20.78294        2.53316        7.40812
H        -21.60467        1.88500       10.88170
H        -24.73387        3.36450       13.57252
H        -25.17564        3.79539       11.91574
H        -24.34732        4.98251       13.00154
H        -19.66605        4.79333        7.24434
H        -17.79338        7.05817        4.76478
H        -18.53888        5.47681        5.06185
H        -17.91041        6.46756        6.42902
H        -22.08780        8.20679        6.20605
H        -23.39094        6.96060        8.09674
H        -24.41280        6.11791       11.09066
H        -21.76889        7.53094       10.41590
H        -23.32760        8.27588       11.07733
