106

C         12.60430      -11.99866        2.30113
C         11.30384      -12.05034        2.61278
C         10.24540      -11.52451        1.74642
C          9.09174      -10.96822        2.34724
C          8.04739      -10.44434        1.57878
C          8.16487      -10.51310        0.20219
C          9.28410      -11.11540       -0.38377
C         10.33424      -11.61751        0.35043
C          9.09083      -11.11621       -1.84785
O          9.85621      -11.55270       -2.68149
C          7.78372      -10.47743       -2.09406
C          7.12414      -10.27379       -3.29432
C          5.89919       -9.60593       -3.24750
C          5.05644       -9.36787       -4.44271
S          5.56356       -9.68699       -6.04734
C          4.26302       -8.75451       -6.80327
C          4.31240       -8.55142       -8.32313
C          5.64594       -8.50229       -8.85874
C          5.99266       -8.52944      -10.21023
N          7.29022       -8.60849      -10.58374
C          7.53860       -8.70034      -11.90883
C          6.52531       -8.68810      -12.84137
N          5.22701       -8.58063      -12.48387
C          4.96694       -8.50985      -11.15639
C          3.65913       -8.44596      -10.68665
C          3.26751       -8.48942       -9.30129
C          1.76949       -8.57810       -9.19341
S          1.02939      -10.06552       -9.70407
C         -0.57011       -9.41677       -9.79101
C         -1.71100      -10.15891      -10.22891
C         -1.67772      -11.40022      -10.73462
C         -2.89275      -12.11721      -11.15823
C         -2.92405      -13.52026      -10.98386
C         -4.03132      -14.28523      -11.37445
C         -5.10833      -13.62878      -11.94164
C         -5.07053      -12.23874      -12.10643
C         -3.98673      -11.46511      -11.74392
C         -6.34753      -11.82331      -12.72530
O         -6.68667      -10.69537      -13.00468
C         -7.13797      -13.05849      -12.92540
C         -8.38099      -13.21821      -13.48380
C         -8.88395      -14.51432      -13.57502
C         -8.13488      -15.60712      -13.09986
C         -6.86685      -15.42360      -12.53298
C         -6.36939      -14.13750      -12.44920
C         -0.57611       -8.11792       -9.31865
C          0.76146       -7.63254       -9.01775
C          0.79994       -6.23840       -8.47428
C         -0.20121       -6.20469       -7.28692
C         -1.59823       -6.80431       -7.51354
C         -1.78640       -7.22695       -8.97505
O         -1.87244       -6.07955       -9.83811
C         -2.73315       -5.04853       -9.35401
C          3.46317       -8.31146       -5.74798
C          3.73658       -8.97615       -4.49626
C          2.72857       -8.99918       -3.37814
C          1.33005       -8.74023       -3.90463
C          1.39634       -7.36191       -4.54056
C          2.33034       -7.34829       -5.78696
O          2.73732       -6.02159       -6.13911
C          3.42824       -5.27488       -5.15073
C          5.47469       -9.09724       -1.98350
C          6.11694       -9.36418       -0.77710
C          7.27709      -10.08406       -0.84479
H         13.35033      -12.39598        2.98097
H         12.96531      -11.55516        1.37769
H         10.99176      -12.48149        3.56185
H          9.00729      -10.92982        3.43268
H          7.17162      -10.01647        2.05621
H         11.17758      -12.07136       -0.15502
H          7.56961      -10.62849       -4.21696
H          6.50479       -8.49186       -8.18707
H          8.57987       -8.79170      -12.19762
H          6.72672       -8.76978      -13.90367
H          2.88374       -8.42455      -11.45782
H         -2.67085       -9.65573      -10.14912
H         -0.75185      -11.95716      -10.83179
H         -2.07279      -14.02529      -10.52970
H         -4.02695      -15.36030      -11.22671
H         -4.00603      -10.39566      -11.92682
H         -8.95599      -12.35801      -13.84476
H         -9.87157      -14.68887      -14.00242
H         -8.54567      -16.61246      -13.18742
H         -6.29621      -16.27629      -12.17502
H          0.49999       -5.51246       -9.23595
H          1.81346       -5.96302       -8.18947
H         -0.21815       -5.24293       -6.77120
H          0.15239       -6.91809       -6.57119
H         -2.35605       -6.10926       -7.14257
H         -1.71530       -7.69834       -6.87923
H         -2.72505       -7.78092       -9.06528
H         -2.92382       -4.33573      -10.15811
H         -2.24814       -4.49008       -8.54378
H         -3.68755       -5.45842       -9.00646
H          2.93017       -8.19165       -2.66872
H          2.75957       -9.95419       -2.84602
H          0.61001       -8.74333       -3.08366
H          1.01876       -9.50054       -4.63268
H          1.73196       -6.64365       -3.78631
H          0.38059       -7.02710       -4.75589
H          1.77010       -7.76255       -6.61595
H          3.83312       -4.37776       -5.62870
H          4.25623       -5.83800       -4.71343
H          2.74133       -4.93313       -4.37191
H          4.62132       -8.44190       -1.89778
H          5.71440       -8.99086        0.15814
