92

C         -5.93416        1.95348       -7.24986
S         -5.87166        0.25205       -7.35531
C         -6.48243        0.05536       -5.75131
C         -6.67565        1.29698       -5.15040
C         -6.38193        2.39675       -6.01946
N         -6.48433        3.80364       -5.71182
O         -6.21545        4.59718       -6.62193
O         -6.78848        4.11013       -4.55668
N         -7.12987        1.40585       -3.79661
O         -6.34369        1.00115       -2.93185
O         -8.27906        1.81754       -3.62200
C         -6.73272       -1.26742       -5.28321
C         -7.94487       -1.88868       -5.35789
N         -9.17227       -1.31284       -5.87420
O        -10.15837       -2.06035       -5.91861
O         -9.17439       -0.13264       -6.24326
C         -7.86408       -3.26834       -4.92851
C         -6.59370       -3.54938       -4.60910
C         -5.78710       -2.33734       -4.81421
C         -4.45151       -2.25874       -4.60608
C         -3.66970       -1.02310       -4.59296
C         -2.39662       -1.34059       -4.31581
C         -2.29940       -2.77543       -4.16017
N         -1.02500       -3.44365       -4.00604
O         -0.05339       -2.91459       -4.56396
O         -0.95631       -4.44395       -3.28223
C         -3.49629       -3.38297       -4.31680
C         -3.76035       -4.80439       -4.43011
C         -3.54676       -5.71043       -3.46452
C         -3.84236       -7.11650       -3.55603
N         -4.10315       -7.91478       -2.43242
C         -4.15438       -7.50487       -1.04181
C         -5.53767       -7.68196       -0.42895
C         -4.29581       -9.26475       -2.78622
O         -4.52180      -10.22967       -2.08510
C         -4.17877       -9.23360       -4.24917
C         -3.86827       -7.88959       -4.65138
C         -3.71883       -7.89790       -6.12254
O         -3.45078       -6.95822       -6.84326
N         -4.00831       -9.23570       -6.46351
C         -4.05469       -9.69324       -7.83979
C         -2.71680      -10.22621       -8.32615
C         -4.27789      -10.00420       -5.33134
C         -4.58281      -11.40301       -5.38502
C         -5.45795      -12.00995       -4.56738
C         -5.74897      -13.44042       -4.63732
C         -5.99384      -14.14409       -3.45433
C         -6.30993      -15.50367       -3.52757
N         -6.57373      -16.20841       -2.28785
O         -5.65816      -16.23995       -1.45548
O         -7.69471      -16.71546       -2.14891
C         -6.38425      -16.17852       -4.75327
C         -6.14329      -15.46084       -5.92853
C         -5.84159      -14.10178       -5.86999
C         -6.74097      -17.58982       -4.88166
C         -5.81273      -18.54950       -4.99576
C         -6.12735      -19.93466       -5.16757
S         -4.79569      -21.05428       -5.12297
C         -5.79284      -22.40370       -5.42181
C         -7.11453      -22.04066       -5.53492
C         -7.30857      -20.63848       -5.39533
N         -8.59001      -20.02574       -5.55099
O         -8.79638      -19.45633       -6.62805
O         -9.36605      -20.11142       -4.59678
N         -8.14523      -22.99198       -5.80700
O         -8.04268      -23.62276       -6.86306
O         -9.03714      -23.09765       -4.96302
H         -5.63177        2.55177       -8.10185
H         -8.70291       -3.94717       -4.87007
H         -6.26908       -4.49882       -4.21819
H         -4.02378       -0.01560       -4.71746
H         -1.56497       -0.65877       -4.21738
H         -4.21984       -5.09988       -5.37215
H         -3.10307       -5.37998       -2.53015
H         -3.84804       -6.46366       -0.92499
H         -3.43598       -8.12200       -0.49010
H         -6.28919       -7.10752       -0.97957
H         -5.53527       -7.34237        0.61154
H         -5.85034       -8.73091       -0.43295
H         -4.34949       -8.84900       -8.47352
H         -4.83289      -10.45740       -7.94543
H         -1.94742       -9.44853       -8.29030
H         -2.80295      -10.57374       -9.36100
H         -2.37300      -11.06586       -7.71416
H         -4.05160      -11.97718       -6.13857
H         -5.98135      -11.46194       -3.78656
H         -5.94186      -13.64151       -2.48953
H         -6.20983      -15.94428       -6.90186
H         -5.69521      -13.56179       -6.80342
H         -7.81180      -17.75177       -4.87812
H         -4.75897      -18.26733       -4.95919
H         -5.36377      -23.39504       -5.50054
