82

C          2.16332       -0.63028       -0.50701
S          1.43452       -2.12650       -0.83311
C          0.75792       -2.27639        0.77161
C          1.14461       -1.17135        1.52404
C          1.92856       -0.23233        0.78668
N          2.46099        0.98705        1.30840
O          2.20850        2.01652        0.67569
O          3.14797        0.88687        2.32868
N          0.77805       -0.93977        2.88419
O          1.20735       -1.73682        3.72288
O          0.07315        0.05227        3.09273
C         -0.06858       -3.43522        1.10918
S         -0.43620       -4.62437       -0.07586
C         -1.31684       -5.62474        1.00135
C         -1.38479       -5.03293        2.24770
C         -0.68068       -3.78061        2.30047
C         -2.07357       -5.59811        3.37812
N         -2.62057       -6.02772        4.30588
C         -1.90736       -6.83778        0.53217
C         -1.35799       -7.58417       -0.44190
C         -1.93688       -8.79134       -0.95806
N         -1.77280       -9.22270       -2.27778
C         -1.00474       -8.56162       -3.31596
C          0.42234       -9.08485       -3.38787
C         -2.41193      -10.46140       -2.50266
O         -2.47083      -11.13478       -3.51077
C         -2.98962      -10.77010       -1.18348
C         -2.65403       -9.69843       -0.29031
C         -3.21164      -10.01664        1.03491
O         -3.10791       -9.36597        2.05352
N         -3.86323      -11.24118        0.80946
C         -4.51135      -11.96677        1.88211
C         -3.55998      -12.91867        2.58924
C         -3.69105      -11.67588       -0.50299
C         -4.20744      -12.91501       -0.98975
C         -3.42679      -13.88533       -1.48786
C         -3.93067      -15.13638       -1.98943
C         -5.10166      -15.28760       -2.64496
C         -5.25232      -16.69170       -3.02858
C         -4.01150      -17.34738       -2.58798
C         -3.24576      -16.41806       -1.99140
C         -3.61817      -18.69368       -2.74231
N         -3.29758      -19.80376       -2.87180
C         -6.33224      -17.22392       -3.63904
C         -6.50278      -18.63814       -3.98310
C         -7.72289      -18.79179       -4.53482
C         -8.38260      -17.50120       -4.58572
C         -7.57415      -16.56010       -4.06838
C         -7.92619      -15.19256       -3.99493
N         -8.22320      -14.07216       -3.93927
C         -8.19790      -20.05758       -4.95911
S         -7.91073      -20.55811       -6.57975
C         -8.69880      -22.05103       -6.33611
C         -9.19532      -22.18590       -5.05245
C         -8.89498      -21.03453       -4.25916
N         -9.24269      -20.85617       -2.88069
O        -10.05561      -19.95906       -2.63102
O         -8.65074      -21.57311       -2.06861
N         -9.93851      -23.35261       -4.64318
O        -10.05749      -24.25995       -5.47524
O        -10.42881      -23.34467       -3.51192
H          2.73751       -0.12218       -1.27222
H         -0.64579       -3.20254        3.21428
H         -2.83508       -7.14600        1.00926
H         -0.41509       -7.29500       -0.89789
H         -1.00969       -7.47874       -3.15370
H         -1.49671       -8.74446       -4.27838
H          0.94634       -8.94229       -2.43728
H          0.98215       -8.56083       -4.16895
H          0.43757      -10.15524       -3.61898
H         -5.38103      -12.50411        1.49094
H         -4.88309      -11.23723        2.61133
H         -3.18365      -13.68530        1.90475
H         -4.07224      -13.42069        3.41580
H         -2.69652      -12.38286        2.99758
H         -5.28541      -13.03788       -0.91963
H         -2.34492      -13.76318       -1.51028
H         -5.78641      -14.48095       -2.84504
H         -2.26456      -16.57164       -1.56447
H         -5.79878      -19.43651       -3.82916
H         -9.37343      -17.34546       -4.98899
H         -8.76992      -22.75614       -7.15599
