182

N         -9.48857        1.16349        3.14007
C         -8.40772        0.27972        3.26087
O         -7.26654        0.60475        3.52127
C         -8.92582       -1.12555        2.85566
C        -10.33718       -0.80773        2.39955
C        -10.59700        0.54370        2.60129
C        -11.80297        1.12453        2.25845
C        -12.78761        0.30246        1.68459
C        -12.52406       -1.06823        1.47992
C        -11.29754       -1.63063        1.83580
C        -14.12600        0.84519        1.27927
C         -8.91160       -2.22366        3.93005
C         -8.06462       -1.91211        5.16796
O         -8.28904       -0.95959        5.89716
N         -7.10140       -2.92102        5.29449
C         -7.21182       -3.85102        4.25509
C         -8.27285       -3.49602        3.42566
C         -8.54968       -4.19419        2.26172
C         -7.64754       -5.17339        1.86942
C         -6.53112       -5.47682        2.67433
C         -5.34031       -6.15398        2.06452
C         -6.37709       -4.89923        3.94053
N         -5.97750       -2.75465        6.10655
C         -5.22418       -1.56377        6.06990
O         -5.19631       -0.70512        5.20400
C         -4.32757       -1.55534        7.31498
C         -4.68461       -2.85952        7.98528
C         -5.64289       -3.52673        7.22253
C         -6.11083       -4.76706        7.59974
C         -5.68789       -5.29576        8.83079
C         -4.73902       -4.60333        9.61287
C         -4.21023       -3.39099        9.17501
C         -6.24617       -6.60584        9.29958
C         -4.53348       -0.35562        8.23340
C         -5.81718        0.44830        8.03847
O         -6.91532       -0.08102        8.05166
N         -5.45213        1.81329        7.94999
C         -4.04550        1.95659        8.04862
C         -3.45919        0.68847        8.15505
C         -2.08243        0.50282        8.21043
C         -1.26260        1.61371        8.04909
C         -1.82378        2.89627        7.92772
C         -0.94428        4.06929        7.60179
C         -3.22236        3.06760        8.01063
N         -6.42964        2.82126        7.79599
C         -7.66360        2.79697        8.50270
O         -8.09834        1.95921        9.28783
C         -8.48169        4.01906        8.04727
C         -7.46673        4.78175        7.21817
C         -6.34192        3.97957        6.99459
C         -5.33118        4.40746        6.14307
C         -5.35419        5.72874        5.66651
C         -6.47382        6.54147        5.90641
C         -7.56488        6.04914        6.66202
C         -4.18115        6.29514        4.91503
C         -9.22370        4.82451        9.13818
C         -9.13424        4.38977       10.63462
O         -8.08746        4.21149       11.23689
N        -10.46255        4.42637       11.15979
C        -11.39189        4.70507       10.14354
C        -10.72494        4.92229        8.93238
C        -11.43161        5.21470        7.77313
C        -12.82369        5.31489        7.84594
C        -13.50341        5.10180        9.05932
C        -15.00454        5.13904        9.09966
C        -12.77583        4.77871       10.21650
N        -10.77732        3.96466       12.44868
C        -10.39103        2.67495       12.86990
O         -9.70903        1.83567       12.24657
C        -11.04556        2.37427       14.22866
C        -11.83203        3.64814       14.46223
C        -11.63210        4.53794       13.40662
C        -12.29240        5.76449       13.40056
C        -13.19917        6.04586       14.44414
C        -13.39898        5.11236       15.48269
C        -12.70547        3.90647       15.50452
C        -14.00458        7.31493       14.46614
C        -10.08981        2.01245       15.37226
C         -8.73344        2.71504       15.21490
O         -8.62602        3.93029       15.29554
N         -7.74755        1.71459       14.96668
C         -8.35026        0.43058       15.06086
C         -9.69897        0.55936       15.40315
C        -10.47569       -0.53228       15.78915
C         -9.89219       -1.79933       15.78732
C         -8.58550       -1.96558       15.31465
C         -7.89105       -3.29661       15.34475
C         -7.83876       -0.84209       14.91546
N         -6.35192        2.03752       15.08081
C         -5.90202        3.08409       15.93894
O         -6.50161        3.70956       16.80106
C         -4.39415        3.26868       15.69760
C         -4.15562        2.42158       14.48035
C         -5.28215        1.62541       14.24761
C         -5.15660        0.58908       13.35392
C         -3.96968        0.42865       12.61742
C         -2.91310        1.33801       12.75488
C         -2.99258        2.33588       13.71850
C         -3.84723       -0.75774       11.71913
C         -3.58386        2.71997       16.88113
C         -4.22998        1.48959       17.57588
O         -4.55744        0.43047       17.06941
N         -4.33579        1.78463       18.92814
C         -3.85367        3.04815       19.21174
C         -3.41528        3.66575       18.04446
C         -2.86433        4.93461       18.09018
C         -2.76074        5.55811       19.34010
C         -3.19429        4.91834       20.52180
C         -3.01957        5.58201       21.85849
C         -3.75869        3.63804       20.45091
H         -9.38441        2.14579        3.33600
H         -8.34811       -1.39959        1.96175
H        -11.97971        2.18316        2.41812
H        -13.28656       -1.70525        1.03589
H        -11.12733       -2.68529        1.66628
H        -14.20279        1.91945        1.47040
H        -14.91745        0.34067        1.84318
H        -14.28809        0.67800        0.20952
H         -9.91845       -2.46611        4.29862
H         -9.35674       -3.91638        1.59796
H         -7.76136       -5.63077        0.88822
H         -5.59139       -6.66040        1.12940
H         -4.88240       -6.86523        2.75405
H         -4.61528       -5.36308        1.83290
H         -5.55331       -5.18000        4.58459
H         -3.29244       -1.64817        6.96492
H         -6.79480       -5.32209        6.96768
H         -4.42318       -5.00375       10.57487
H         -3.47292       -2.86755        9.77892
H         -7.25458       -6.74781        8.89720
H         -6.32892       -6.62522       10.39081
H         -5.61207       -7.43293        8.96843
H         -4.57823       -0.68167        9.27101
H         -1.64544       -0.48272        8.33782
H         -0.18457        1.47758        8.00542
H          0.11598        3.82277        7.72330
H         -1.17143        4.91849        8.25162
H         -1.09957        4.36172        6.55681
H         -3.63070        4.07094        7.98739
H         -9.20331        3.62380        7.31645
H         -4.50504        3.75715        5.88165
H         -6.52034        7.54167        5.50574
H         -8.42336        6.68309        6.81842
H         -3.24439        5.82077        5.22925
H         -4.07218        7.36615        5.12960
H         -4.30576        6.16381        3.83687
H         -8.85687        5.85943        9.13733
H        -10.93252        5.34738        6.81839
H        -13.38570        5.54539        6.94282
H        -15.41925        5.55952        8.17710
H        -15.36112        5.75464        9.93193
H        -15.38993        4.12098        9.21141
H        -13.30350        4.59135       11.14469
H        -11.77680        1.57286       14.05569
H        -12.14144        6.47465       12.59496
H        -14.10876        5.32749       16.27998
H        -12.87164        3.19192       16.30368
H        -13.69433        8.00704       13.68021
H        -13.88211        7.81990       15.43041
H        -15.06696        7.08506       14.32348
H        -10.50488        2.25850       16.35985
H        -11.49788       -0.40799       16.13180
H        -10.45342       -2.65686       16.15283
H         -8.59461       -4.12422       15.46681
H         -7.19024       -3.30823       16.18730
H         -7.32619       -3.46565       14.42090
H         -6.87104       -1.04301       14.49933
H         -4.16800        4.31405       15.45896
H         -5.92158       -0.14874       13.20940
H         -2.02613        1.24718       12.13589
H         -2.15541        3.00872       13.87655
H         -4.84015       -1.09876       11.40426
H         -3.34168       -1.58668       12.22066
H         -3.27177       -0.48620       10.83540
H         -2.57539        2.40686       16.57502
H         -4.73207        1.13908       19.59884
H         -2.50402        5.43354       17.19867
H         -2.32824        6.55874       19.39157
H         -2.59606        6.58582       21.75445
H         -2.33789        4.99435       22.48289
H         -3.98325        5.67184       22.36424
H         -4.08690        3.12018       21.34844
