101

C          1.78538        9.12811        0.41625
S          3.02217        9.29970        1.59601
C          3.71241        7.81998        1.10735
C          5.11400        7.58167        1.34025
O          5.91146        8.20212        2.03699
O          5.56418        6.72314        0.42427
C          2.80333        7.07888        0.36521
C          1.85119        7.92308       -0.26174
O          1.00966        7.69818       -1.30253
C          1.15605        6.90268       -2.43614
C          0.32951        6.98649       -3.50632
N         -0.70808        7.96359       -3.65102
O         -0.80236        8.50076       -4.76321
O         -1.48265        8.13932       -2.70264
C          0.42686        5.85284       -4.39028
C          1.22459        4.94770       -3.81038
C          1.78513        5.56280       -2.57907
C          2.96089        5.00643       -2.24324
C          3.00351        3.60228       -1.82967
C          4.20118        3.40990       -1.25774
C          4.99037        4.61182       -1.44160
N          6.33122        4.68428       -0.91691
O          7.13099        5.48561       -1.42327
O          6.58491        3.97116        0.06876
C          4.28452        5.61456       -2.03360
C          4.64571        6.98627       -2.35799
C          4.31026        7.68493       -3.45947
C          4.57859        9.08667       -3.72242
N          4.93380       10.12648       -2.84032
C          5.03100       10.14076       -1.40945
C          6.44963        9.90595       -0.92557
C          5.12162       11.35635       -3.51067
O          5.41126       12.45329       -3.08007
C          4.83627       10.99220       -4.89227
C          4.46690        9.61313       -4.94747
C          4.07828        9.30845       -6.33915
O          3.67674        8.23230       -6.75704
N          4.24967       10.53997       -6.98233
C          3.91213       10.74691       -8.38272
C          2.44838       11.11708       -8.56509
C          4.71933       11.50918       -6.10381
C          4.85625       12.88167       -6.44178
C          5.93439       13.64912       -6.25939
C          5.93293       15.04208       -6.57586
S          7.34851       15.94633       -6.22345
C          6.62344       17.44857       -6.62397
C          5.28141       17.26127       -6.93047
C          4.99806       15.86640       -7.19700
C          3.74777       15.44463       -7.94860
N          4.03668       14.54970       -9.16164
O          5.20853       14.36468       -9.51271
O          3.04908       14.04569       -9.71494
C          2.93158       16.63166       -8.46916
C          2.83471       17.71594       -7.40141
C          4.21891       18.33587       -7.10206
N          4.01586       19.20625       -5.85673
O          3.26619       20.18375       -5.99286
O          4.56252       18.87621       -4.79699
C          7.38075       18.65793       -6.65324
C          8.46508       18.87465       -5.88963
C          9.27667       20.04189       -6.02270
S          9.49473       20.83000       -7.54198
C         10.53869       22.01005       -6.88919
C         11.08146       23.06955       -7.71218
O         11.52169       24.13139       -7.29561
O         11.09794       22.75373       -9.03381
C         10.74461       21.81019       -5.53960
C         10.05566       20.66521       -5.06400
O         10.11892       20.20438       -3.79953
H          1.11146        9.95880        0.26697
H          6.51947        6.91294        0.26970
H          2.97155        6.04632        0.11723
H         -0.01886        5.78855       -5.37110
H          1.58806        4.04790       -4.28988
H          2.17187        2.92031       -1.78931
H          4.51331        2.54844       -0.68275
H          5.14978        7.52857       -1.59053
H          3.83363        7.15567       -4.28924
H          4.32336        9.42909       -1.00628
H          4.71048       11.12611       -1.04332
H          6.81740        8.92254       -1.22838
H          6.49107        9.97405        0.16422
H          7.13677       10.65334       -1.33426
H          4.11941        9.81147       -8.91632
H          4.56646       11.51554       -8.81360
H          1.78670       10.33563       -8.17495
H          2.21908       11.25213       -9.63129
H          2.19599       12.04469       -8.04166
H          3.92560       13.25328       -6.82479
H          6.83042       13.22525       -5.80695
H          3.08363       14.88252       -7.28613
H          1.92120       16.28491       -8.72464
H          3.36714       17.04375       -9.38697
H          2.40160       17.27704       -6.48975
H          2.13227       18.48741       -7.73651
H          4.51028       19.02247       -7.90509
H          7.05433       19.41048       -7.36561
H          8.76826       18.16366       -5.12361
H         10.76879       21.84650       -9.19295
H         11.38280       22.45234       -4.94448
H         10.70718       20.75998       -3.25938
