68

C         -0.80864       -2.12861        0.47236
S         -0.33856       -0.53361        0.12201
C         -1.38997        0.13090        1.32138
C         -2.08710       -0.88147        1.97635
C         -1.74598       -2.19173        1.48387
N         -2.28358       -3.45318        1.94372
O         -1.88116       -4.47750        1.37024
O         -3.09816       -3.42162        2.86770
C         -3.05425       -0.65590        3.01680
N         -3.83641       -0.44232        3.84924
C         -1.43280        1.57152        1.47484
S         -2.35420        2.37752        2.66911
C         -1.85773        3.86822        1.98214
N         -1.02363        3.72162        0.97245
N         -0.76828        2.39477        0.69078
C         -2.40338        5.05696        2.51645
C         -2.46323        6.17454        1.78073
C         -3.03518        7.39966        2.25776
N         -3.66357        8.32721        1.42400
C         -3.93050        8.18399        0.00679
C         -5.26979        7.51728       -0.26957
C         -4.11790        9.44820        2.14815
O         -4.72985       10.42032        1.75961
C         -3.69467        9.14159        3.52562
C         -3.03020        7.86880        3.51141
C         -2.59974        7.56590        4.88941
O         -2.01358        6.57766        5.28075
N         -3.05873        8.68201        5.61184
C         -2.86727        8.79266        7.04508
C         -1.55710        9.47581        7.40250
C         -3.70070        9.60266        4.77966
C         -4.21772       10.85280        5.25382
C         -5.29017       11.46694        4.73154
C         -5.81112       12.70222        5.20812
S         -5.15653       13.56354        6.53437
C         -6.40859       14.72320        6.51572
C         -6.47579       15.61092        7.64776
O         -7.49623       16.20117        8.00747
C         -7.21432       14.59680        5.39858
C         -6.89535       13.38807        4.69087
C         -8.33498       15.52654        4.96475
S         -9.69889       14.85958        4.13207
C        -10.49288       16.35507        4.05122
C         -9.73973       17.36934        4.59741
C         -8.45230       16.91318        5.07271
N         -7.40298       17.82463        5.49618
O         -6.23914       17.40751        5.51676
O         -7.73089       18.99311        5.72557
C        -10.23782       18.71558        4.59015
N        -10.68710       19.78274        4.55308
H         -0.37200       -2.94999       -0.08441
H         -2.80171        5.02111        3.52629
H         -2.07760        6.16687        0.76399
H         -3.11981        7.63005       -0.47302
H         -3.93938        9.18426       -0.44217
H         -5.33649        6.53593        0.21066
H         -5.40809        7.38082       -1.34720
H         -6.09824        8.12952        0.10223
H         -2.86141        7.78140        7.46947
H         -3.71628        9.32033        7.49234
H         -0.70232        8.92257        6.99928
H         -1.44365        9.53360        8.48937
H         -1.51544       10.49301        7.00101
H         -3.67479       11.28948        6.08585
H         -5.82447       11.01444        3.89858
H         -5.53799       15.74380        8.21801
H         -7.42290       13.03290        3.81124
H        -11.46864       16.42747        3.58607
