104

C          9.82074       -2.94667       -4.77622
S          8.97137       -4.18153       -5.57547
C          8.22949       -4.75524       -4.11646
C          8.57292       -3.92172       -3.04100
C          9.54510       -2.90786       -3.42347
C         10.18741       -1.94171       -2.46589
F         11.18187       -1.22110       -3.04322
F          9.29472       -1.05098       -1.97470
F         10.73242       -2.59901       -1.41387
C          8.07971       -4.02708       -1.62970
F          6.81448       -4.48706       -1.54929
F          8.85845       -4.85181       -0.89069
F          8.05945       -2.82850       -0.99425
C          7.41917       -5.93168       -4.25257
C          7.11490       -6.76063       -3.23806
C          6.36604       -8.00482       -3.35968
C          6.66585       -9.06892       -4.14994
N          7.81147       -9.18829       -5.03741
O          7.76884      -10.10420       -5.87143
O          8.77247       -8.42344       -4.89613
C          5.78510      -10.18664       -3.91149
C          4.96243       -9.88416       -2.90005
C          5.27774       -8.53080       -2.43046
C          4.72308       -7.90693       -1.35955
C          4.82084       -6.46359       -1.14215
C          4.32094       -6.17093        0.06456
C          3.81166       -7.38905        0.63592
N          3.14170       -7.37268        1.90553
O          3.80508       -6.99045        2.87892
O          1.94282       -7.67969        1.93095
C          3.97025       -8.46473       -0.17014
C          3.57063       -9.84038        0.06831
C          3.04556      -10.40560        1.16425
C          2.65789      -11.77790        1.22004
S          2.69945      -12.49863        2.78643
C          2.29780      -14.07362        2.22515
C          2.10706      -14.03960        0.85752
C          2.22713      -12.71315        0.29319
C          1.98263      -12.44094       -1.06375
C          1.70711      -13.59494       -1.83726
C          1.56259      -13.43984       -3.32909
C          1.63739      -14.90655       -1.26854
C          1.80070      -15.18150        0.10389
C          2.26261      -15.18472        3.11869
C          2.01642      -15.07174        4.43142
C          2.02640      -16.18944        5.38962
C          1.07298      -16.08629        6.41872
C          1.11125      -17.02337        7.42999
C          2.04409      -18.03655        7.45050
C          1.83665      -18.79906        8.67709
O          2.49376      -19.77448        8.98507
N          0.79512      -18.20114        9.33323
C          0.28474      -17.14866        8.62339
O         -0.66698      -16.43530        8.86536
C          0.22132      -18.70160       10.56462
C          0.28260      -17.68502       11.69278
C          2.98944      -18.18792        6.45503
C          2.99282      -17.24768        5.41285
C          4.14660      -17.32238        4.49794
C          4.16215      -17.99366        3.33131
C          5.23638      -18.00982        2.37041
S          4.90371      -18.94427        0.94875
C          6.41954      -18.65927        0.20742
C          7.20723      -17.84237        1.00292
C          6.50688      -17.42226        2.25361
C          7.21416      -16.49344        3.21516
F          6.42830      -15.82136        4.07996
F          8.12831      -17.17196        3.95189
F          7.89114      -15.51974        2.55479
C          8.60201      -17.34094        0.68674
F          9.20335      -17.91930       -0.37712
F          8.60146      -16.00923        0.42665
F          9.43326      -17.54400        1.74163
C          6.60996      -19.25120       -1.08102
C          7.73425      -19.86654       -1.46098
H         10.49208       -2.30671       -5.33407
H          7.10804       -6.20096       -5.26379
H          7.44634       -6.56120       -2.22711
H          5.77516      -11.09735       -4.49255
H          4.14771      -10.51891       -2.61238
H          5.13423       -5.73437       -1.86389
H          4.21762       -5.19297        0.51092
H          3.75370      -10.50818       -0.75445
H          2.94035       -9.85620        2.09142
H          1.99199      -11.45717       -1.51178
H          0.97812      -14.25923       -3.75855
H          2.55461      -13.43348       -3.79280
H          1.04957      -12.50432       -3.57449
H          1.43687      -15.75174       -1.92880
H          1.71014      -16.18574        0.49566
H          2.44166      -16.15481        2.68066
H          1.76055      -14.10639        4.86557
H          0.34367      -15.27929        6.45797
H          0.74597      -19.61551       10.86328
H         -0.82338      -18.95873       10.35949
H          1.31511      -17.38214       11.89472
H         -0.13956      -18.11153       12.60769
H         -0.28796      -16.78267       11.45068
H          3.73374      -18.97640        6.52182
H          4.97593      -16.76810        4.89006
H          3.25816      -18.54383        3.07058
H          5.77263      -19.24228       -1.77568
H          8.60649      -19.98071       -0.82589
H          7.81227      -20.29252       -2.45817
