118

C        -12.56930      -11.60139       -3.98823
S        -13.81980      -12.57011       -4.65868
C        -13.29840      -12.25702       -6.26408
C        -12.20433      -11.42662       -6.27882
C        -11.78292      -11.02131       -4.95561
C        -10.69102      -10.16632       -4.70331
C        -10.07233       -9.76148       -5.91439
C        -10.48480      -10.18940       -7.22159
C        -11.58116      -11.04510       -7.46500
O         -8.98738       -8.91279       -5.90729
C        -10.22578       -9.88000       -3.34458
C        -10.71411       -8.88643       -2.58331
C        -10.26345       -8.66463       -1.20193
C         -9.10010       -7.94884       -0.91678
C         -8.15390       -7.26269       -1.80469
O         -8.26205       -7.29168       -3.01924
N         -7.20898       -6.65902       -0.99987
C         -7.43505       -6.94188        0.32929
O         -6.80989       -6.62210        1.31736
C         -8.64989       -7.74270        0.38416
C         -9.31287       -8.22348        1.49276
C        -10.48037       -8.92696        1.22916
C        -10.95369       -9.14338       -0.07314
C        -12.22655       -9.87669       -0.05340
O        -12.89947      -10.13661       -1.03103
S        -12.70900      -10.31108        1.57511
C        -11.33487       -9.49727        2.26769
O        -11.10511       -9.40675        3.45970
C         -6.15150       -5.87075       -1.40224
C         -5.89468       -5.47588       -2.65922
C         -4.76115       -4.65662       -3.08884
C         -4.73798       -4.24974       -4.38891
C         -3.58615       -3.53563       -4.91662
C         -3.29360       -3.09024       -6.17225
C         -4.19978       -3.08289       -7.40587
C         -3.97936       -1.83968       -8.32441
N         -4.90005       -1.68013       -9.45740
C         -4.10139       -4.39201       -8.22706
N         -4.58685       -5.57660       -7.51741
C         -1.94142       -2.51712       -6.04641
C         -1.05495       -2.05049       -6.94220
C          0.25801       -1.37743       -6.54529
C          0.56912       -1.48577       -5.05911
C         -0.26681       -2.04192       -4.16686
C         -1.52061       -2.55598       -4.64625
C         -2.48525       -3.20879       -3.98898
C         -2.55236       -3.60911       -2.60959
C         -3.62605       -4.30708       -2.20011
C          0.31968        0.08526       -6.97535
C         -0.67196        0.79583       -7.54160
C         -0.55560        2.20175       -7.92459
C         -0.94610        3.22700       -7.05941
C         -1.40205        3.22318       -5.65435
O         -1.51172        2.21437       -4.98374
N         -1.68964        4.53273       -5.32159
C         -1.50289        5.36365       -6.39134
O         -1.69261        6.56378       -6.50332
C         -0.96248        4.55487       -7.47169
C         -0.51757        4.96999       -8.71139
C         -0.07792        3.96207       -9.55861
C         -0.11415        2.60871       -9.19767
C          0.32549        1.75095      -10.31046
O          0.30443        0.53467      -10.31686
S          0.86138        2.70154      -11.68685
C          0.44459        4.19886      -10.89928
O          0.57911        5.30611      -11.38714
C         -2.12673        5.00614       -4.10288
C         -1.79932        4.48621       -2.91124
C         -2.36656        5.01299       -1.71487
S         -3.66932        4.07499       -1.04566
C         -3.93351        5.16166        0.23752
C         -3.04471        6.20209        0.19742
C         -2.11070        6.12973       -0.92191
C         -1.10133        7.11348       -1.10554
C         -1.13337        8.12023       -0.09777
C         -2.06849        8.16600        0.97608
C         -3.07097        7.20073        1.17198
O         -0.21148        9.14602       -0.08242
C         -0.10649        7.07325       -2.16970
C         -0.26973        7.73484       -3.32173
H        -12.50046      -11.51383       -2.91594
H        -13.82597      -12.70418       -7.09518
H         -9.91284       -9.83523       -8.08037
H        -11.87603      -11.35901       -8.45780
H         -8.92943       -8.47414       -5.03651
H         -9.46598      -10.56618       -2.97952
H        -11.47858       -8.21013       -2.96094
H         -8.95492       -8.04628        2.50424
H         -5.50468       -5.56418       -0.58179
H         -6.56333       -5.77660       -3.45982
H         -5.54049       -4.48826       -5.08001
H         -5.23672       -2.99868       -7.04640
H         -2.99070       -1.87804       -8.77762
H         -4.03699       -0.92561       -7.72193
H         -4.88470       -2.51165      -10.04661
H         -4.54572       -0.93452      -10.05922
H         -3.07038       -4.55998       -8.55684
H         -4.71627       -4.31396       -9.12859
H         -3.94718       -5.80245       -6.75620
H         -4.58189       -6.37767       -8.14705
H         -1.22225       -2.11380       -8.00696
H          1.05749       -1.91069       -7.07621
H          1.52338       -1.09874       -4.71441
H         -0.01619       -2.10901       -3.11580
H         -1.74186       -3.37421       -1.93089
H         -3.65502       -4.63105       -1.16547
H          1.27530        0.56890       -6.78242
H         -1.64367        0.34985       -7.74016
H         -0.51089        6.01784       -8.99710
H         -2.73635        5.90753       -4.16184
H         -1.13501        3.63128       -2.82506
H         -4.72047        4.96690        0.95269
H         -1.99351        8.98886        1.68773
H         -3.76622        7.24751        2.00066
H          0.38571        9.03211       -0.84042
H          0.80103        6.51320       -1.96439
H         -1.17550        8.29353       -3.54400
H          0.49254        7.70585       -4.09425
