96

C          1.00275        1.23164        0.63207
S          2.38889        0.97458       -0.37637
C          1.42075        0.66454       -1.77959
C          0.09642        0.76055       -1.45959
C         -0.12363        1.07632       -0.11500
C         -1.51813        1.14925        0.08871
C         -2.19213        0.89047       -1.06288
C         -1.15727        0.62254       -2.14842
O         -1.34792        0.35046       -3.31954
C         -3.64566        0.88058       -1.24536
C         -4.23081        1.19991       -2.47467
C         -5.63121        1.17608       -2.61966
N         -6.15415        1.53152       -3.92761
O         -5.86260        2.65532       -4.35811
O         -6.83266        0.68646       -4.52206
C         -6.49186        0.83225       -1.56292
C         -5.88432        0.52763       -0.33478
C         -4.49202        0.53805       -0.18312
C         -7.96470        0.84235       -1.66734
C         -8.77165        0.04242       -0.95221
C        -10.20045        0.05318       -1.05875
N        -11.04067        0.29127        0.03055
C        -10.61337        0.67299        1.36307
C        -10.53974        2.18261        1.53395
C        -12.40013        0.24312       -0.34471
O        -13.40059        0.43162        0.31829
C        -12.32689       -0.08108       -1.78075
C        -10.93983       -0.17911       -2.14565
C        -10.86942       -0.50147       -3.58166
O         -9.87273       -0.69723       -4.24241
N        -12.22674       -0.51902       -3.95949
C        -12.64818       -0.75294       -5.32776
C        -12.83716       -2.22580       -5.64828
C        -13.06500       -0.30054       -2.86551
C        -14.49396       -0.29831       -2.96178
C        -15.28580       -1.12833       -2.26148
C        -16.79201       -1.16661       -2.34028
C        -17.35524       -0.75406       -3.68925
O        -16.95740       -1.12767       -4.78959
O        -18.40580        0.09741       -3.51899
C        -18.72465        0.21434       -2.11923
C        -17.44364       -0.15686       -1.39767
C        -17.61759       -0.61671        0.05037
C        -18.85635       -1.46717        0.32745
C        -20.14197       -1.02228       -0.36552
C        -19.94388       -0.67032       -1.82303
O        -21.14624        0.03015       -2.18266
C        -21.71245        0.58474       -1.07023
O        -22.64574        1.37290       -1.10484
C        -20.95262        0.16215        0.17332
C        -20.17941        1.29610        0.78266
C        -20.11902        2.56592        0.34159
C        -19.34707        3.57043        0.99136
S        -18.40006        3.24610        2.42725
C        -17.81893        4.85107        2.55130
C        -18.32514        5.60682        1.53842
C        -19.17620        4.89475        0.67630
C        -19.62798        5.81223       -0.30983
C        -19.09739        7.03717       -0.09561
C        -18.21797        6.97201        1.11850
O        -17.57407        7.87744        1.61692
H          1.11526        1.47449        1.67962
H          1.87576        0.43630       -2.73421
H         -1.96585        1.39367        1.04234
H         -3.61284        1.47048       -3.33082
H         -6.48054        0.27699        0.54026
H         -4.08583        0.26111        0.78836
H         -8.40035        1.53592       -2.38589
H         -8.37584       -0.67705       -0.24070
H         -9.64039        0.22181        1.58228
H        -11.32898        0.26564        2.08613
H         -9.84974        2.63083        0.81172
H        -10.18996        2.43316        2.54059
H        -11.52189        2.64459        1.38982
H        -11.88228       -0.34145       -5.99566
H        -13.57222       -0.19952       -5.52327
H        -11.90256       -2.78192       -5.52224
H        -13.16520       -2.34416       -6.68645
H        -13.59143       -2.68104       -4.99922
H        -14.91318        0.42311       -3.66080
H        -14.83415       -1.84068       -1.57168
H        -17.14770       -2.18475       -2.14725
H        -18.95917        1.26895       -1.94696
H        -16.80716        0.74089       -1.37314
H        -17.65135        0.27124        0.69000
H        -16.72767       -1.16873        0.37989
H        -19.01785       -1.53960        1.41019
H        -18.63555       -2.48933       -0.00925
H        -20.83044       -1.88152       -0.32544
H        -19.91476       -1.58259       -2.43006
H        -21.67507       -0.20604        0.91257
H        -19.65313        1.01083        1.69129
H        -20.66762        2.87386       -0.54695
H        -17.15350        5.13360        3.35271
H        -20.30992        5.57029       -1.11505
H        -19.24265        7.94674       -0.65238
