93

C          4.56985        2.54935       -4.70653
C          3.79595        3.26347       -5.58208
S          3.11959        2.20977       -6.77927
C          3.88622        0.84203       -6.10970
Cl         3.66318       -0.69331       -6.83532
C          4.63652        1.17088       -5.02326
C          5.49411        0.43398       -4.13511
O          5.70169       -0.76170       -4.11008
C          6.07592        1.54083       -3.25346
C          5.35198        2.82247       -3.52757
C          5.34528        3.94667       -2.77870
C          4.57573        5.08418       -3.14770
N          3.95997        6.00966       -3.46348
C          6.04448        4.07668       -1.54561
N          6.61277        4.16831       -0.53889
C          7.17111        1.36214       -2.49663
C          7.87125        0.09482       -2.34962
C          8.93243       -0.23017       -3.19156
C          9.58337       -1.46137       -3.02686
N         10.73697       -1.69040       -3.88250
O         10.55279       -1.63974       -5.10624
O         11.83507       -1.82942       -3.32567
C          9.18404       -2.39316       -2.04883
C          8.10991       -2.01953       -1.22077
C          7.46939       -0.79168       -1.35672
C          9.83202       -3.70314       -1.85151
C          9.43871       -4.62906       -0.96145
C         10.08857       -5.88559       -0.76830
N         10.22666       -6.49318        0.47709
C          9.83950       -5.96261        1.77080
C          8.44548       -6.39545        2.20276
C         10.87230       -7.73410        0.36795
O         11.17692       -8.49873        1.26104
C         11.09744       -7.87667       -1.09182
C         10.59613       -6.68311       -1.70955
C         10.81045       -6.77853       -3.15790
O         10.53983       -5.94640       -3.99887
N         11.40306       -8.04930       -3.30049
C         11.81714       -8.51404       -4.61332
C         10.65227       -8.68420       -5.58279
C         11.56972       -8.67864       -2.05455
C         12.16483       -9.97779       -1.89547
C         12.20855      -10.67528       -0.74932
C         12.79399      -11.95748       -0.59390
C         12.73168      -12.95242       -1.54341
O         13.31769      -14.08070       -1.08027
C         13.75509      -13.79972        0.18036
N         14.42955      -14.88193        0.82899
O         14.88815      -14.65934        1.95832
O         14.51689      -15.95446        0.21698
C         13.46860      -12.49531        0.54527
C         13.78401      -11.86382        1.79696
C         14.06026      -10.55881        1.98047
C         14.35606       -9.96789        3.27074
C         15.36397      -10.29203        4.09601
C         15.27412       -9.84148        5.54751
O         14.66446       -8.89912        6.01234
C         16.03123      -10.86820        6.21731
C         16.27819      -11.19698        7.51469
S         17.18118      -12.64187        7.63670
C         17.28906      -12.81280        5.91542
C         16.66152      -11.76076        5.30762
C         16.45610      -11.29094        3.96486
C         17.26735      -11.48389        2.90056
C         18.36633      -12.38689        2.95213
N         19.26804      -13.11503        3.00568
C         17.17752      -10.67558        1.73009
N         17.13038       -9.98975        0.79514
Cl        15.79115      -10.37649        8.93649
H          3.56711        4.31961       -5.62926
H          7.65386        2.16002       -1.94451
H          9.25862        0.46490       -3.96255
H          7.73263       -2.66913       -0.43777
H          6.64977       -0.55050       -0.68360
H         10.69256       -3.91557       -2.48407
H          8.57696       -4.48529       -0.32286
H          9.92623       -4.87184        1.76763
H         10.55244       -6.33729        2.51570
H          7.68336       -6.07235        1.48752
H          8.20365       -5.96074        3.17886
H          8.37828       -7.48474        2.29698
H         12.36247       -9.45700       -4.54778
H         12.50922       -7.76856       -5.02307
H          9.91888       -9.39941       -5.19835
H         11.01562       -9.04653       -6.55003
H         10.13269       -7.73818       -5.76502
H         12.62523      -10.41911       -2.77169
H         11.78289      -10.27318        0.15938
H         12.30247      -13.01368       -2.53501
H         13.79725      -12.51128        2.67441
H         14.03383       -9.84997        1.15448
H         13.62351       -9.22161        3.58897
H         17.80638      -13.66424        5.49143
