108

C          4.37658        4.21265       -0.56761
C          5.14627        3.12081       -0.77809
C          6.56096        3.20955       -0.92293
N          7.71185        3.29066       -1.04583
C          4.58404        1.82411       -0.96224
N          4.12684        0.76548       -1.09099
C          4.83832        5.62570       -0.48742
C          3.77113        6.43970       -0.89360
C          3.79602        7.81979       -0.84464
C          4.94142        8.43119       -0.33419
C          6.05384        7.63980        0.07483
C          5.99674        6.22904       -0.01094
C          7.18730        8.29100        0.59173
C          7.21424        9.68208        0.72288
C          6.11333       10.44616        0.34177
C          4.98655        9.82546       -0.18808
C          2.60571        5.61064       -1.23563
O          1.70124        5.92524       -1.97816
C          2.89399        4.28332       -0.60361
C          2.03078        3.48534        0.05202
C          0.62983        3.69563        0.30602
S         -0.05494        5.25266        0.57022
C         -1.59908        4.65139        1.01302
C         -1.60149        3.26640        0.99905
C         -0.34214        2.72172        0.52396
C         -0.16467        1.23028        0.36496
F          0.58571        0.94326       -0.73534
C         -1.51105        0.50436        0.24229
F         -2.14171        0.85069       -0.91807
C         -2.41065        0.88380        1.40534
F         -1.75323        0.58268        2.56294
C         -2.76934        2.37701        1.35405
F         -3.32127        2.73674        2.54843
C         -2.62627        5.56806        1.35172
N         -3.59082        6.07966        0.47619
C         -3.73037        5.81290       -0.94205
C         -3.05352        6.86157       -1.81360
C         -4.43561        7.00079        1.12899
O         -5.36563        7.64838        0.69315
C         -3.90737        7.01493        2.50311
C         -2.80394        6.09147        2.57068
C         -2.29751        6.11164        3.95923
O         -1.37949        5.46353        4.41807
N         -3.13393        7.06469        4.58801
C         -2.97041        7.45617        5.97983
C         -3.80261        6.61446        6.93608
C         -4.07704        7.57931        3.69933
C         -5.05738        8.55365        4.07443
C         -5.17127        9.75320        3.48720
C         -6.19699       10.63610        3.88448
S         -7.71290       10.51207        3.10731
C         -8.21028       11.91473        3.98777
N         -7.30879       12.32248        4.85903
N         -6.13553       11.59696        4.78265
C         -9.48534       12.48390        3.75872
C        -10.06028       12.42125        2.54879
C        -11.37922       12.91017        2.27863
C        -12.50392       12.47355        2.86616
C        -13.89377       12.86743        2.57640
C        -14.31710       14.08008        2.13009
C        -15.68877       14.39385        1.96045
N        -16.80949       14.65171        1.81144
C        -13.41560       15.15541        1.84614
N        -12.68856       16.02630        1.60921
C        -14.74755       11.74291        3.05552
C        -13.95976       10.87408        3.82190
C        -12.56322       11.30247        3.80810
O        -11.67158       10.75419        4.44220
C        -14.44372        9.72904        4.43881
C        -15.78876        9.40999        4.26110
C        -16.61225       10.25127        3.46113
C        -16.08058       11.41212        2.85971
C        -17.95713        9.90295        3.27643
C        -18.48521        8.75311        3.86565
C        -17.67742        7.93426        4.64932
C        -16.33548        8.25973        4.84703
H          2.92010        8.38841       -1.14439
H          6.83746        5.63994        0.34544
H          8.05740        7.72141        0.91126
H          8.09385       10.16994        1.13820
H          6.12781       11.52548        0.46966
H          4.12883       10.43784       -0.46780
H          2.43228        2.60359        0.54770
H          0.38295        0.84575        1.23433
H         -1.34051       -0.57612        0.20739
H         -3.33277        0.29318        1.39680
H         -3.54473        2.52576        0.59409
H         -4.80322        5.81158       -1.17650
H         -3.34596        4.81752       -1.18086
H         -3.46372        7.86336       -1.64324
H         -3.19499        6.61834       -2.87209
H         -1.97934        6.90040       -1.61394
H         -3.22733        8.51513        6.09840
H         -1.91137        7.35453        6.24423
H         -4.87239        6.76919        6.76474
H         -3.58563        6.89504        7.97263
H         -3.59527        5.54566        6.82283
H         -5.73440        8.27171        4.87903
H         -4.53091       10.08156        2.67633
H         -9.98787       12.94425        4.60459
H         -9.54599       11.99563        1.68880
H        -11.38357       13.64126        1.47468
H        -13.77136        9.10049        5.01805
H        -16.73119       12.01458        2.23469
H        -18.61057       10.52589        2.66872
H        -19.53053        8.49729        3.71113
H        -18.09121        7.03864        5.10582
H        -15.72073        7.60368        5.45994
