81

C          0.74602        0.73996       -2.00517
C         -0.46280        0.81061       -2.61444
C         -1.28906       -0.33274       -2.82344
N         -1.95808       -1.26677       -2.99473
C         -0.90377        2.02154       -3.22613
N         -1.21703        3.00046       -3.77637
C          1.48217       -0.49682       -1.65702
C          2.85774       -0.22055       -1.74626
C          3.83693       -1.16632       -1.50705
C          3.42589       -2.44306       -1.10865
C          2.03680       -2.73010       -0.95102
C          1.06826       -1.74978       -1.23857
C          1.65213       -3.99569       -0.48915
C          2.60847       -4.96975       -0.19985
C          3.96189       -4.69570       -0.37689
C          4.36916       -3.44005       -0.82777
C          3.07797        1.22256       -1.97093
O          4.13912        1.79291       -2.10566
C          1.71670        1.83145       -1.85354
C          1.64594        3.05973       -1.31713
C          0.48990        3.52759       -0.64097
S          0.16911        5.21547       -0.53074
C         -1.18782        4.83904        0.46908
N         -1.35295        3.54219        0.64499
N         -0.39082        2.79133        0.01059
C         -1.98819        5.89250        0.98139
C         -3.27308        5.67071        1.29358
C         -4.07307        6.72331        1.79649
S         -4.93233        7.75151        0.71049
C         -5.60224        8.54812        2.08718
N         -5.15427        8.06516        3.23038
N         -4.26757        7.02456        3.06290
C         -6.55783        9.58089        1.90504
C         -7.46808        9.82037        2.86199
C         -8.44539       10.83491        2.69394
S         -9.65353       11.07070        3.90444
C        -10.30937       12.33594        2.93190
N         -9.62713       12.53138        1.81993
N         -8.56578       11.66845        1.67958
C        -11.47613       13.02118        3.36657
C        -12.01450       13.98288        2.60195
C        -13.23785       14.66477        2.96208
C        -14.09269       15.24969        2.11007
C        -15.33439       16.00735        2.39553
C        -16.14959       15.87083        3.46821
C        -17.37280       16.58112        3.60503
N        -18.37053       17.16425        3.72365
C        -15.88653       14.95121        4.52796
N        -15.66535       14.20544        5.38952
C        -15.61561       16.81604        1.17059
C        -14.77844       16.37195        0.13925
C        -13.85880       15.34147        0.62564
O        -13.07984       14.72458       -0.07055
C        -14.78602       16.89524       -1.14430
C        -15.66439       17.94498       -1.41956
C        -16.51015       18.44245       -0.38840
C        -16.47486       17.87299        0.90295
C        -17.37082       19.51060       -0.67713
C        -17.40334       20.07877       -1.95189
C        -16.57690       19.58810       -2.95798
C        -15.71087       18.52646       -2.69458
H          4.88638       -0.89705       -1.58428
H          0.01593       -1.97762       -1.09291
H          0.60049       -4.23474       -0.34118
H          2.29457       -5.94449        0.16509
H          4.70386       -5.45883       -0.15608
H          5.43291       -3.24536       -0.94916
H          2.54748        3.66325       -1.22875
H         -1.54342        6.87660        1.10271
H         -3.73769        4.69579        1.17789
H         -6.54944       10.14855        0.97752
H         -7.48349        9.22802        3.77367
H        -11.95202       12.71652        4.29436
H        -11.53581       14.25285        1.66059
H        -13.41455       14.69033        4.03362
H        -14.10525       16.50311       -1.89551
H        -17.11542       18.29742        1.66887
H        -18.02832       19.91332        0.09109
H        -18.07670       20.90712       -2.15808
H        -16.60349       20.03274       -3.94974
H        -15.06992       18.16054       -3.49426
