75

C         -0.34625        4.73162        1.85653
S         -1.49115        4.27456        3.07826
C         -2.62833        3.91671        1.90603
C         -2.17619        4.12908        0.63686
C         -0.85519        4.60326        0.57597
C         -3.22523        3.77740       -0.27245
O         -3.19546        3.83572       -1.48454
C         -4.36189        3.31714        0.63551
C         -3.94661        3.42971        1.92096
C         -5.63967        2.82240        0.18420
C         -6.00897        2.72250       -1.10354
C         -7.27554        2.18965       -1.47020
O         -8.16158        1.72121       -0.53258
C         -9.29790        1.26027       -1.13155
C         -9.14504        1.43542       -2.49128
C         -7.85953        2.01320       -2.72322
C         -7.32340        2.32235       -4.07384
F         -6.11023        2.92335       -4.06600
F         -7.19814        1.19513       -4.82338
F         -8.16284        3.14439       -4.75754
C        -10.39212        0.70481       -0.42472
C        -10.20144        0.16375        0.78765
C        -11.27066       -0.43891        1.50372
S        -11.19481       -0.49857        3.24628
C        -12.66417       -1.28401        3.31828
C        -13.21325       -1.52677        2.09721
C        -12.43282       -1.04664        1.03357
C        -14.45355       -2.22450        2.29738
O        -15.22607       -2.61306        1.44542
C        -14.55381       -2.35464        3.81186
C        -13.46470       -1.76989        4.36278
C        -15.62830       -2.97455        4.54384
C        -16.67634       -3.61640        4.00319
C        -17.68786       -4.18159        4.83310
O        -17.65172       -4.07790        6.20351
C        -18.71712       -4.72081        6.77030
C        -19.47874       -5.22627        5.73321
C        -18.83725       -4.89298        4.49958
C        -19.35087       -5.26461        3.15712
F        -18.57042       -4.84547        2.13237
F        -19.46890       -6.61244        3.03088
F        -20.58873       -4.74746        2.94196
C        -18.88726       -4.76977        8.17907
C        -19.65523       -5.69450        8.77401
C        -19.79979       -5.73749       10.18994
S        -21.24908       -6.44097       10.86857
C        -20.71173       -6.14817       12.42077
C        -19.49014       -5.54986       12.46736
C        -18.93905       -5.30760       11.19813
C        -19.13809       -5.36448       13.84724
O        -18.10892       -4.89153       14.29044
C        -20.33543       -5.92611       14.60434
C        -21.23077       -6.39140       13.70258
C        -20.45086       -5.99202       16.03609
C        -19.86094       -5.13376       16.87791
H          0.64305        5.06571        2.14775
H         -0.31169        4.83292       -0.33236
H         -4.50486        3.18042        2.81254
H         -6.32523        2.50362        0.97024
H         -5.34633        3.03656       -1.90344
H         -9.86668        1.15422       -3.24757
H        -11.36638        0.72406       -0.90184
H         -9.21329        0.16598        1.24437
H        -12.69028       -1.15022       -0.01354
H        -13.23416       -1.68304        5.41458
H        -15.55119       -2.89805        5.62858
H        -16.77247       -3.71868        2.92710
H        -20.40689       -5.77356        5.83793
H        -18.34547       -4.02356        8.75317
H        -20.18798       -6.44018        8.19024
H        -17.96715       -4.86008       11.02754
H        -22.18524       -6.85262       13.91084
H        -21.06911       -6.78779       16.44538
H        -19.25494       -4.30258       16.52482
H        -19.97720       -5.23209       17.95174
