84

C          7.14792       -2.83702        3.18442
C          7.03154       -3.98636        2.42099
N          6.18583       -4.99321        2.74504
C          5.46075       -4.80920        3.87500
C          5.58969       -3.65635        4.64419
N          6.42931       -2.64475        4.31334
C          4.54052       -5.87542        4.24413
C          4.94543       -6.91564        5.00819
C          3.82091       -7.78704        5.27598
C          3.89005       -8.98341        6.02644
N          3.93605       -9.97723        6.62366
C          2.71482       -7.28441        4.70251
C          3.10408       -6.08471        3.95315
C          2.29444       -5.36629        3.14600
C          0.86664       -5.61303        2.83855
C          0.45877       -4.58409        2.06433
C          1.56185       -3.69013        1.81216
C          2.66479       -4.15197        2.42157
C          1.48347       -2.53918        0.99276
N          1.40310       -1.60021        0.31533
C          0.01755       -6.75094        3.09015
C         -1.19872       -6.65898        3.65040
C         -2.04822       -7.79748        3.88126
C         -2.47969       -8.57254        2.86577
C         -3.27475       -9.63330        3.41638
C         -3.76583      -10.81924        2.60227
N         -4.17323      -11.80308        1.92690
C         -3.37841       -9.56535        4.73890
C         -2.69741       -8.34711        5.10134
C         -2.76770       -7.81514        6.32351
C         -3.59815       -8.24422        7.47123
C         -3.47218       -7.28130        8.40175
C         -2.55521       -6.30484        7.89820
C         -2.09134       -6.60155        6.69151
C         -2.02905       -5.13898        8.71936
N         -1.59256       -4.17179        9.40059
C         -4.43859       -9.38505        7.70333
C         -5.76762       -9.29390        7.87118
C         -6.61645      -10.41807        8.17515
C         -6.36733      -11.65111        7.67396
C         -7.39070      -12.58087        8.07762
C         -7.36698      -13.95715        7.76198
N         -7.33386      -15.08415        7.49489
C         -8.31797      -11.93989        8.80512
C         -7.92479      -10.52713        8.89430
C         -8.62747       -9.55991        9.53013
C         -9.95718       -9.65994       10.18746
C        -10.26358       -8.42172       10.63251
C         -9.17620       -7.51622       10.35190
C         -8.19792       -8.17373        9.71492
C         -9.15329       -6.15106       10.72189
N         -9.12615       -5.03100       11.01290
C        -10.89917      -10.74630       10.28228
C        -11.44334      -11.17720       11.43270
C        -12.39105      -12.29085       11.51340
C        -12.34300      -13.39278       10.66145
N        -13.20843      -14.43097       10.73864
C        -14.12717      -14.33396       11.72208
C        -14.17115      -13.25523       12.58992
N        -13.30344      -12.21724       12.51102
H          7.82414       -2.03610        2.90642
H          7.61736       -4.12875        1.51963
H          5.01581       -3.50669        5.55264
H          5.94299       -7.08076        5.39119
H          1.73006       -7.71245        4.77853
H         -0.51690       -4.47040        1.61158
H          3.64026       -3.69927        2.35725
H          0.42052       -7.71792        2.78972
H         -1.59437       -5.69208        3.95043
H         -2.26049       -8.45396        1.81487
H         -3.83176      -10.30648        5.37134
H         -3.93804       -7.24203        9.37503
H         -1.33544       -6.05266        6.16051
H         -3.91766      -10.33598        7.77989
H         -6.24302       -8.32434        7.77122
H         -5.53061      -11.93557        7.04959
H         -9.16407      -12.41343        9.26860
H        -11.18621       -8.11888       11.10833
H         -7.25727       -7.73235        9.44340
H        -11.16881      -11.20077        9.33183
H        -11.21383      -10.70410       12.38453
H        -11.59346      -13.48274        9.88429
H        -14.83073      -15.15497       11.79486
H        -14.91365      -13.19744       13.37773
