83

C          2.86584       -2.29803       -2.33659
C          3.02353       -2.12009       -0.96716
C          2.62557       -0.82003       -0.59008
C          2.20025       -0.08458       -1.67661
S          2.24796       -0.88856       -3.13107
C          1.81605        1.19853       -1.23649
C          1.99229        1.27502        0.12491
C          2.52131        0.00244        0.61711
C          2.84371       -0.33082        1.88241
C          2.69224        0.58278        2.96164
N          2.57489        1.32544        3.84520
C          3.36150       -1.61411        2.20549
N          3.78712       -2.66162        2.46844
C          1.60816        2.53728        0.62433
C          1.16238        3.38731       -0.39588
S          1.21791        2.57440       -1.93958
C          0.67264        4.77511       -0.31287
C          0.79820        5.74304       -1.32580
F          1.41309        5.41926       -2.47621
C          0.32470        7.07452       -1.22675
F          0.49469        7.83846       -2.31976
C         -0.30836        7.64178       -0.09532
C         -0.43931        6.71024        0.98332
C          0.02421        5.25491        0.86125
N         -0.26857        4.53724        1.96084
S         -1.00108        5.54650        3.04038
N         -0.92250        6.96900        2.21029
C         -0.75309        9.04857       -0.02341
C         -0.04238       10.12787       -0.60248
F          1.11041        9.87108       -1.24447
C         -0.43235       11.48809       -0.55994
F          0.36228       12.35219       -1.21482
C         -1.57829       11.96467        0.10095
C         -2.35727       10.94280        0.71467
C         -1.95951        9.46893        0.62097
N         -2.89210        8.67349        1.17196
S         -4.01894        9.63233        1.89974
N         -3.48158       11.11855        1.43183
C         -2.00833       13.37109        0.15027
C         -3.29971       13.89998        0.25642
C         -3.29200       15.30675        0.21132
C         -2.01246       15.79919        0.11253
S         -0.82246       14.64917        0.08408
C         -2.06787       17.20574        0.06326
C         -3.38389       17.59790        0.14466
C         -4.24180       16.41752        0.22107
C         -5.58797       16.36371        0.24321
C         -6.38616       17.53645        0.21051
N         -7.06069       18.48646        0.19316
C         -6.29029       15.12288        0.27657
N         -6.86345       14.11578        0.29763
C         -3.50215       18.99983        0.14433
C         -2.26617       19.62485       -0.02770
S         -0.97366       18.44326       -0.07396
C         -1.90405       21.00147       -0.09508
C         -2.60825       21.98202       -0.68503
C         -2.22970       23.41212       -0.79280
C         -1.61618       24.16771        0.15289
C         -1.51028       25.58373        0.04524
N         -1.43864       26.74009       -0.04188
C         -1.13568       23.62348        1.37922
N         -0.74010       23.17144        2.37139
C         -2.91778       23.94422       -1.99996
C         -3.91970       23.04623       -2.35980
C         -3.83374       21.82334       -1.55070
O         -4.60898       20.89765       -1.64905
C         -4.81765       23.26235       -3.39726
C         -4.67134       24.44670       -4.15226
C         -3.61403       25.31562       -3.84619
C         -2.71449       25.07695       -2.77736
S         -3.58198       26.66139       -4.92598
C         -4.97646       26.13255       -5.74930
C         -5.45146       24.94373       -5.24922
H          3.08022       -3.18354       -2.92006
H          3.40112       -2.90392       -0.32213
H          1.64238        2.83782        1.66467
H         -4.18518       13.28143        0.33596
H         -4.42801       19.55086        0.24347
H         -0.93811       21.23342        0.34816
H         -5.59443       22.53587       -3.62049
H         -1.90172       25.77434       -2.60417
H         -5.38089       26.71487       -6.56592
H         -6.32669       24.44423       -5.64770
