91

C         -1.39726       -6.15267        0.78450
C         -1.53612       -5.25287       -0.26448
C         -1.57583       -3.93253        0.22494
C         -1.45517       -3.88839        1.59996
S         -1.30918       -5.37510        2.33080
C         -1.49581       -2.54077        2.02020
C         -1.65177       -1.74219        0.91207
C         -1.71064       -2.56884       -0.28921
C         -1.85633       -2.17125       -1.56940
C         -1.99407       -0.80089       -1.92208
N         -2.12216        0.31126       -2.22610
C         -1.89126       -3.10422       -2.63891
N         -1.92223       -3.86801       -3.51333
C         -1.71124       -0.38064        1.25864
C         -1.53111       -0.17725        2.63070
S         -1.40519       -1.71830        3.46110
C         -1.44553        1.02287        3.41083
C         -0.93352        2.19155        2.98611
C         -0.76994        3.36085        3.82814
C          0.00434        4.31509        3.28480
C          0.53153        3.95298        1.98087
S         -0.27194        2.50570        1.40468
C          1.58457        4.50075        1.34758
C          2.41640        5.58781        1.82722
C          3.65441        5.56306        1.30848
C          3.85397        4.46061        0.39022
S          2.32342        3.78879       -0.09159
C          5.05115        3.93141        0.10704
C          5.30137        2.72108       -0.66347
C          6.35904        1.91126       -0.49943
C          6.65406        0.75169       -1.30952
C          7.87748        0.24377       -1.08797
C          8.63121        0.96971       -0.07791
S          7.57577        2.12260        0.73279
C          9.95699        0.91389        0.15032
C         10.93325        0.14253       -0.59559
C         12.19343        0.58141       -0.43116
C         12.29579        1.71081        0.47424
S         10.78515        1.95703        1.31066
C         13.37715        2.50047        0.59170
C         13.40403        3.66786        1.41206
C         13.78631        3.80700        2.73301
C         13.67212        5.15163        3.19812
S         14.31127        5.64146        4.77019
C         12.88934        5.36653        5.83813
C         13.14334        6.01643        2.25624
S         13.04268        5.20560        0.73798
C         12.96691        7.43728        2.33829
C         11.87578        8.08997        2.80107
C         11.89206        9.50048        3.35280
C         12.80227       10.48890        3.14503
C         13.88675       10.38043        2.23148
N         14.78822       10.30835        1.50188
C         12.79221       11.73035        3.84687
N         12.81337       12.74043        4.42151
C         10.70119        9.58773        4.28213
C         10.03468        8.33442        4.31813
C          8.97410        8.12506        5.19961
C          8.48836        9.19323        5.95472
C          9.06745       10.45494        5.84152
C         10.17981       10.65257        5.01828
C         10.57635        7.48215        3.20959
C          9.78881        6.64584        2.48499
C          8.55061        6.12022        2.95380
N          7.54048        5.69444        3.33886
C         10.00989        6.43733        1.09345
N         10.08426        6.34990       -0.06185
H         -1.34220       -7.23174        0.72695
H         -1.60416       -5.57152       -1.29736
H         -1.84879        0.43242        0.55853
H         -1.75695        0.94917        4.45091
H         -1.19621        3.42852        4.81996
H          0.26998        5.22943        3.79576
H          2.09742        6.29502        2.57842
H          4.45087        6.23395        1.59925
H          5.92641        4.40205        0.55220
H          4.57215        2.47996       -1.43429
H          5.96282        0.36617       -2.04685
H          8.27644       -0.59841       -1.63504
H         10.66748       -0.65536       -1.27253
H         13.04448        0.17477       -0.95697
H         14.25858        2.30054       -0.00930
H         14.16764        2.98055        3.32023
H         13.19921        5.51872        6.87598
H         12.51069        4.34707        5.73460
H         12.09361        6.07926        5.61028
H         13.90394        7.95118        2.16459
H          8.48076        7.16552        5.30931
H          7.63179        9.04993        6.61143
H          8.65385       11.29304        6.40024
H         10.57301       11.66086        4.97568
