104

C          3.50414       -2.10162       -1.14523
C          4.12552       -2.39521       -2.35786
F          5.40273       -2.03555       -2.54291
C          3.43843       -3.06066       -3.36293
F          4.04784       -3.35676       -4.51882
C          2.11274       -3.43224       -3.18118
C          1.46556       -3.14322       -1.97276
C          2.16990       -2.47809       -0.92331
C          1.53268       -2.22965        0.31650
C          0.21544       -2.63286        0.50776
C         -0.44270       -3.26928       -0.55448
C          0.13861       -3.52628       -1.78388
C         -1.78029       -3.71378       -0.14868
O         -2.65538       -4.08980       -0.89850
C         -1.81147       -3.55294        1.34181
C         -0.71322       -2.61536        1.67923
C         -0.64661       -1.79687        2.75757
C         -1.65723       -1.77927        3.76515
N         -2.47998       -1.78585        4.58263
C          0.39932       -0.84809        2.93279
N          1.25855       -0.07929        3.06752
C         -2.54651       -4.32839        2.15720
C         -3.39512       -5.36896        1.68291
C         -4.75619       -5.32623        1.38548
C         -5.22854       -6.59088        0.97358
C         -4.22666       -7.53656        0.97019
S         -2.74419       -6.97443        1.46895
C         -4.76986       -8.77637        0.56556
C         -6.11897       -8.61703        0.33552
C         -6.48148       -7.21383        0.54885
C         -7.67900       -6.62247        0.36998
C         -8.81392       -7.36391       -0.05842
N         -9.73871       -7.97689       -0.39713
C         -7.87207       -5.23149        0.58699
N         -8.03284       -4.09420        0.76780
C         -6.73663       -9.84154       -0.00615
C         -5.80968      -10.88560       -0.03944
S         -4.19984      -10.31727        0.31318
C         -6.01686      -12.25217       -0.27923
C         -6.30447      -13.32535        0.69799
N         -6.45241      -14.52683        0.21051
C         -6.26984      -14.33684       -1.12404
C         -5.99526      -12.94962       -1.41180
C         -5.76597      -12.78776       -2.87916
S         -5.33612      -11.39763       -3.67914
C         -5.96876      -14.19075       -3.38762
C         -6.25758      -15.04553       -2.24680
N         -6.42243      -16.33784       -2.63022
C         -6.24546      -16.27950       -3.91958
C         -5.95233      -14.93854       -4.49183
C         -5.70748      -14.60495       -5.84006
C         -5.95454      -13.41721       -6.53376
C         -5.52298      -13.48535       -7.87054
C         -4.98595      -14.71671       -8.16629
S         -4.97498      -15.78970       -6.90375
C         -4.47530      -14.68394       -9.47802
C         -4.65727      -13.41830       -9.98518
C         -5.42684      -12.61648       -9.03839
C         -5.98610      -11.40468       -9.23420
C         -5.85790      -10.73262      -10.48218
N         -5.73318      -10.22080      -11.51614
C         -6.78607      -10.77174       -8.24800
N         -7.45835      -10.24641       -7.45122
C         -3.95116      -13.24665      -11.18835
C         -3.34728      -14.44004      -11.60401
S         -3.66985      -15.73235      -10.47954
C         -2.49629      -14.70521      -12.71816
C         -2.57930      -14.04627      -13.88146
C         -1.38648      -14.02953      -14.79017
O         -0.49268      -14.84540      -14.86992
C         -1.46742      -12.72870      -15.49124
C         -0.49856      -12.15794      -16.29825
C         -0.69784      -10.83936      -16.73112
C         -1.84777      -10.11142      -16.29207
C         -2.00211       -8.77209      -16.67618
C         -1.06454       -8.17299      -17.51025
C          0.03169       -8.89002      -17.96799
C          0.22665      -10.21215      -17.57883
F          0.91809       -8.31217      -18.78984
F         -1.23451       -6.89458      -17.87360
C         -2.81934      -10.73490      -15.48900
C         -2.65132      -12.06293      -15.13391
C         -3.49273      -13.01017      -14.36600
C         -4.84670      -13.04866      -14.35553
C         -5.57918      -14.16327      -13.83374
N         -6.18585      -15.05832      -13.41664
C         -5.63756      -12.02254      -14.93803
N         -6.26845      -11.17160      -15.40963
H          4.08063       -1.58361       -0.38288
H          1.60283       -3.95616       -3.98571
H          2.10683       -1.75788        1.10957
H         -0.42724       -4.04818       -2.55123
H         -2.45085       -4.26796        3.23630
H         -5.33778       -4.41635        1.46747
H         -7.79180       -9.99239       -0.20296
H         -6.37714      -13.08060        1.76829
H         -6.31088      -17.15809       -4.57989
H         -6.40418      -12.54644       -6.07992
H         -3.83866      -12.30691      -11.71455
H         -1.66711      -15.39587      -12.55370
H          0.39305      -12.72175      -16.56073
H         -2.85132       -8.18089      -16.34197
H          1.10128      -10.73901      -17.95105
H         -3.68055      -10.16445      -15.14958
