103

C        -17.60443        8.71270        2.18001
C        -16.49928        7.96753        2.56676
C        -15.31933        8.73783        2.44935
C        -15.58656       10.00898        1.98799
S        -17.19235       10.32129        1.68748
C        -14.37498       10.72670        1.89958
C        -13.33994        9.91690        2.30700
C        -13.87853        8.60042        2.67347
C        -13.21498        7.51179        3.11231
C        -11.80562        7.52436        3.29809
N        -10.65922        7.54131        3.46545
C        -13.88833        6.29867        3.42470
N        -14.44148        5.30892        3.68176
C        -12.09827       10.59827        2.25247
C        -12.24657       11.91299        1.79189
S        -13.92619       12.25244        1.43442
C        -11.21349       12.93170        1.59988
C         -9.85344       12.78227        1.27656
C         -9.28835       11.50914        0.95643
N         -8.89361       10.45869        0.66573
C         -9.20661       14.04086        1.21856
C        -10.05812       15.07528        1.39295
S        -11.61903       14.62724        1.75336
S         -9.36573       16.59881        1.20008
C         -7.88109       15.85651        0.91032
C         -7.90502       14.50563        0.97996
C         -6.62042       13.93099        0.84579
C         -6.23472       12.56760        1.03634
N         -5.86921       11.49044        1.25811
C         -5.65712       14.91832        0.57935
S         -6.38196       16.50833        0.57719
C         -4.24011       14.81229        0.35343
C         -3.41074       14.88818        1.41403
C         -1.97825       14.80356        1.26208
C         -1.33012       14.60284       -0.04037
C         -1.98953       14.50321       -1.19347
S         -3.72877       14.59760       -1.31413
C          0.06038       14.55101        0.20371
C          0.29635       14.70148        1.54835
C          1.65736       14.66418        1.89108
C          2.42079       14.47442        0.74773
S          1.45585       14.35988       -0.69428
C         -0.98299       14.86113        2.19326
C         -1.16633       15.08537        3.59938
C         -0.72929       14.24767        4.55232
C         -0.94296       14.50503        5.94307
C         -0.15731       14.11753        7.04077
C          1.07750       13.41926        6.84832
N          2.08189       12.88628        6.61928
C         -0.72450       14.59167        8.24094
C         -1.84920       15.31565        8.04944
S         -2.35178       15.39638        6.47123
S         -2.50594       15.99463        9.43948
C         -1.26075       15.28970       10.32116
C         -0.40022       14.54150        9.59639
C          0.57333       13.89294       10.38235
C          1.54118       12.93089        9.95571
N          2.34061       12.14041        9.67211
C          0.44108       14.26825       11.72821
S         -0.90808       15.36084       11.94033
C          1.23089       13.89393       12.92418
C          0.62275       13.82108       14.18764
C          1.39333       13.50335       15.29593
C          2.76708       13.22507       15.18156
C          3.38387       13.27291       13.94886
C          2.61514       13.61805       12.82966
C          3.30406       12.93986       16.49241
C          2.27111       13.05680       17.45006
C          0.95020       13.40684       16.75600
C          0.36740       14.75750       17.25784
C          1.25380       15.98525       17.04242
C         -0.10731       12.28265       16.94203
C          0.27707       10.91031       16.38506
C          2.52112       12.85617       18.79969
C          3.82161       12.52511       19.18681
C          4.84527       12.39291       18.23410
C          4.59048       12.60156       16.87665
H        -18.63975        8.39850        2.16025
H        -16.58038        6.94230        2.90541
H        -11.14416       10.17341        2.53965
H         -3.80040       15.00880        2.42080
H         -1.44553       14.35818       -2.12170
H          2.07647       14.75992        2.88545
H          3.49757       14.39523        0.67702
H         -1.69739       16.00354        3.83831
H         -0.18116       13.34800        4.27330
H         -0.43610       14.01577       14.32817
H          4.44261       13.06314       13.83848
H          3.14056       13.67730       11.88000
H          0.14047       14.68442       18.32907
H         -0.58984       14.95261       16.75547
H          2.23381       15.86897       17.51332
H          0.77730       16.86873       17.48015
H          1.40295       16.19365       15.97823
H         -1.04795       12.58028       16.45925
H         -0.33394       12.16620       18.00946
H          0.35806       10.92816       15.29342
H         -0.49411       10.17611       16.63974
H          1.22468       10.55147       16.79634
H          1.73384       12.95075       19.54008
H          4.04691       12.36384       20.23842
H          5.84881       12.12563       18.55649
H          5.38654       12.49704       16.14746
