90

C         -0.39074       -1.28304        3.11916
C         -0.52642       -1.34833        1.73473
C         -1.79967       -1.54651        1.17969
N         -1.88922       -1.60253       -0.26688
O         -1.47081       -0.62173       -0.89524
O         -2.34053       -2.64272       -0.76860
C         -2.94331       -1.69231        1.97860
C         -2.78077       -1.61796        3.36933
C         -1.51599       -1.41312        3.93338
C         -4.29535       -1.92991        1.46042
C         -5.12915       -0.93154        1.13321
C         -6.45464       -1.18043        0.66816
S         -7.44684        0.15777        0.27584
C         -8.77710       -0.81875       -0.23081
C         -8.47444       -2.15733       -0.04035
C         -7.15450       -2.35765        0.47216
C         -9.36786       -3.24196       -0.34850
N        -10.06998       -4.12783       -0.59576
C         -9.97903       -0.21125       -0.71137
C         -9.96400        0.94941       -1.38677
C        -11.14528        1.60811       -1.85480
N        -11.39575        1.87626       -3.19988
C        -10.58270        1.45329       -4.32367
C        -10.05813        2.62531       -5.13775
C        -12.65777        2.48255       -3.37543
O        -13.23786        2.80209       -4.39282
C        -13.14733        2.61218       -1.99348
C        -12.16271        2.04771       -1.11615
C        -12.67214        2.14155        0.26181
O        -12.11702        1.77278        1.27618
N        -13.94187        2.72451        0.08141
C        -14.83551        2.97513        1.19405
C        -14.62933        4.34605        1.81628
C        -14.18442        3.01075       -1.26121
C        -15.40953        3.56307       -1.74602
C        -15.47988        4.66608       -2.50728
C        -16.74768        5.17972       -3.02898
C        -17.80090        4.32407       -3.35619
C        -18.99707        4.84847       -3.85237
N        -20.03931        3.87921       -4.13387
O        -19.81638        3.05770       -5.03302
O        -21.05730        3.91820       -3.42997
C        -19.18737        6.22581       -4.05893
C        -18.10250        7.06199       -3.74822
C        -16.89953        6.54824       -3.24892
C        -20.45167        6.78464       -4.57277
C        -20.70720        8.08055       -4.81947
C        -21.99730        8.60097       -5.29459
C        -22.13017        9.97518       -5.50765
C        -23.35482       10.49816       -5.96037
N        -23.41291       11.93681       -6.15069
O        -22.56698       12.43692       -6.90589
O        -24.27191       12.56568       -5.51975
C        -24.47312        9.68570       -6.20859
C        -24.31052        8.31005       -6.00010
C        -23.10290        7.78054       -5.53948
C        -25.75698       10.18404       -6.73370
C        -26.94579        9.62437       -6.46426
H          0.58966       -1.12976        3.56510
H          0.35164       -1.25183        1.09958
H         -3.63984       -1.72346        4.03093
H         -1.40966       -1.35830        5.01501
H         -4.57557       -2.97518        1.37641
H         -4.80311        0.10431        1.22382
H         -6.74068       -3.33843        0.67468
H        -10.92147       -0.72674       -0.53196
H         -9.03755        1.46682       -1.62006
H        -11.20638        0.81625       -4.96108
H         -9.73857        0.84757       -3.97876
H        -10.87329        3.23447       -5.54007
H         -9.46343        2.26215       -5.98153
H         -9.42670        3.27500       -4.52368
H        -14.64435        2.21263        1.95815
H        -15.87420        2.85104        0.87172
H        -13.60186        4.46686        2.17452
H        -15.30364        4.47692        2.66923
H        -14.83127        5.14504        1.09609
H        -16.30098        3.00515       -1.47017
H        -14.58550        5.22676       -2.76638
H        -17.70138        3.24765       -3.23236
H        -18.15783        8.13871       -3.87989
H        -16.09104        7.24363       -3.02813
H        -21.23364        6.05473       -4.74551
H        -19.94617        8.83923       -4.66971
H        -21.29259       10.64622       -5.31962
H        -25.11874        7.60999       -6.19777
H        -23.06664        6.70617       -5.38496
H        -25.72984       11.06556       -7.36943
H        -27.05996        8.75615       -5.82247
H        -27.85785       10.04303       -6.87879
