101

C         -1.31694       -4.31719       10.24103
C         -0.63428       -5.29181       10.96676
F         -0.47031       -5.13015       12.28673
C         -0.13298       -6.42184       10.33688
F          0.50021       -7.36705       11.04432
C         -0.27677       -6.58433        8.96506
C         -0.93767       -5.60627        8.21078
C         -1.49747       -4.46110        8.85611
C         -2.23338       -3.50999        8.10870
C         -2.38616       -3.68143        6.73818
C         -1.76802       -4.78949        6.13719
C         -1.06157       -5.75531        6.83060
C         -2.06526       -4.83556        4.70284
O         -1.45815       -5.47114        3.86840
C         -3.20379       -3.88189        4.52248
C         -3.17033       -2.96365        5.68225
C         -3.64204       -1.69713        5.72724
C         -4.28164       -1.09109        4.60099
N         -4.80909       -0.62020        3.68494
C         -3.49287       -0.86186        6.86837
N         -3.37424       -0.18707        7.80724
C         -4.18953       -4.08964        3.63448
C         -4.20072       -5.20021        2.74481
C         -3.66351       -5.30066        1.46332
C         -3.96552       -6.54957        0.88169
C         -4.67373       -7.35602        1.74289
S         -5.01414       -6.66871        3.21645
C         -4.95212       -8.57855        1.09568
C         -4.43513       -8.54294       -0.18050
C         -3.77449       -7.24957       -0.38817
C         -3.15304       -6.78771       -1.49047
C         -3.07432       -7.56021       -2.67845
N         -3.01767       -8.18827       -3.65118
C         -2.56010       -5.49414       -1.53185
N         -2.08245       -4.43706       -1.56745
C         -4.69553       -9.74900       -0.87868
C         -5.36541      -10.66598       -0.06473
S         -5.71816       -9.99201        1.49598
C         -5.75601      -12.07653       -0.46711
C         -5.93251      -12.46887       -1.77966
F         -5.80708      -11.66829       -2.80774
S         -6.40394      -14.09035       -1.95849
C         -6.35915      -14.32322       -0.28447
F         -6.63131      -15.47099        0.28451
C         -5.99922      -13.19376        0.41562
C         -5.86934      -13.21412        1.84072
C         -4.72239      -13.50502        2.47486
C         -4.64551      -13.48178        3.89207
C         -4.30943      -12.41590        4.72864
C         -4.21054      -12.83555        6.07194
C         -4.54559      -14.16385        6.20919
S         -4.92663      -14.94195        4.79299
C         -4.44776      -14.52085        7.56877
C         -4.01915      -13.42955        8.28896
C         -3.85438      -12.29060        7.38352
C         -3.47780      -11.03333        7.68605
C         -3.16888      -10.64552        9.01837
N         -2.92306      -10.32175       10.10533
C         -3.38265      -10.02102        6.69191
N         -3.30703       -9.18746        5.88776
C         -3.89886      -13.73388        9.66100
C         -4.29195      -15.04918        9.93250
S         -4.79214      -15.86682        8.47285
C         -4.46650      -15.63989       11.21683
C         -4.29335      -16.92245       11.56669
C         -5.01943      -17.32324       12.81447
O         -5.44331      -16.61059       13.70038
C         -5.20220      -18.77530       12.71702
C         -5.96105      -19.53791       13.59140
C         -6.03515      -20.91311       13.37150
C         -5.34628      -21.48871       12.26264
C         -5.40791      -22.88163       12.08580
C         -6.13222      -23.67507       12.97426
C         -6.81433      -23.10286       14.03780
C         -6.77389      -21.72906       14.24062
F         -7.51338      -23.86978       14.88551
F         -6.16164      -25.00259       12.79418
C         -4.61117      -20.66314       11.37428
C         -4.52881      -19.29234       11.59942
C         -3.81019      -18.15801       10.92719
C         -2.76132      -18.26951       10.07245
C         -1.91008      -17.16313        9.76091
N         -1.19330      -16.28177        9.51672
C         -2.38425      -19.50311        9.46970
N         -2.09486      -20.50540        8.96013
H         -1.70090       -3.45177       10.77513
H          0.12742       -7.48021        8.50133
H         -2.69587       -2.68034        8.63599
H         -0.65887       -6.61417        6.29980
H         -5.08886       -3.48209        3.63067
H         -3.11017       -4.48879        1.00779
H         -4.37979       -9.97423       -1.89052
H         -6.76328      -12.96882        2.41037
H         -3.81892      -13.75389        1.92364
H         -4.11665      -11.42090        4.34549
H         -3.58683      -13.05372       10.44607
H         -4.88606      -14.95890       11.96084
H         -6.47262      -19.05982       14.42334
H         -4.88738      -23.37137       11.26653
H         -7.31630      -21.31221       15.08544
H         -4.11776      -21.13516       10.53000
