77

C         -6.23711       -1.75865       -1.38309
C         -5.77519       -1.73319       -0.07300
C         -5.16539       -0.49263        0.20863
C         -5.25695        0.37430       -0.85957
S         -5.97151       -0.26513       -2.21885
C         -4.67642        1.60655       -0.49798
C         -4.19785        1.51800        0.78886
C         -4.44665        0.16619        1.29920
C         -4.03616       -0.37902        2.46319
C         -3.24414        0.35361        3.38249
N         -2.58541        0.94799        4.13514
C         -4.32351       -1.73276        2.79870
N         -4.56340       -2.84191        3.07187
C         -3.62661        2.74246        1.20996
C         -3.66008        3.70556        0.19470
S         -4.45732        3.07645       -1.22914
C         -3.14222        5.08340        0.17460
C         -3.73288        6.11929       -0.57966
C         -3.25129        7.44892       -0.61893
C         -2.11767        7.90380        0.08077
C         -1.45482        6.90278        0.85670
C         -1.97548        5.46420        0.90530
N         -1.20325        4.67262        1.67258
S          0.03922        5.60087        2.24803
N         -0.33824        7.07175        1.59054
C         -1.57495        9.27828        0.06713
C         -1.54724       10.15389       -0.95214
C         -0.77078       11.37896       -0.95742
C         -0.47979       11.81007       -2.19831
C         -1.02161       10.94681       -3.23117
S         -2.25672        9.91746       -2.52205
C         -0.55497       10.75623       -4.47751
C          0.61064       11.35643       -5.09150
C          1.10401       10.62836       -6.11050
C          0.35069        9.41130       -6.36612
S         -1.17441        9.49919       -5.52837
C          0.81910        8.34782       -7.04657
C          0.15607        7.07726       -7.14298
C         -1.20206        6.74394       -7.13080
C         -1.41072        5.35600       -7.09572
C         -0.22879        4.66158       -7.19643
S          1.12722        5.62007       -7.28334
C         -0.52199        3.27922       -7.19508
C         -1.88600        3.11330       -7.08298
C         -2.52877        4.42294       -7.00117
C         -3.83769        4.70463       -6.85020
C         -4.81751        3.67683       -6.78806
N         -5.61555        2.83516       -6.75154
C         -4.31578        6.04186       -6.74656
N         -4.71856        7.12485       -6.66587
C         -2.24959        1.75167       -7.07438
C         -1.12887        0.92781       -7.18929
S          0.33856        1.86231       -7.29624
C         -1.10250       -0.52110       -7.22401
C         -0.17279       -1.31816       -7.86440
C         -0.46055       -2.70513       -7.68963
C         -1.56641       -2.92910       -6.92046
S         -2.32017       -1.44105       -6.42290
C         -1.82741       -4.31674       -6.70672
C         -0.89293       -5.09308       -7.35292
S          0.27757       -4.19374       -8.22374
H         -6.72182       -2.57541       -1.90034
H         -5.87840       -2.58152        0.59380
H         -3.19507        2.94239        2.18451
H         -4.61940        5.91074       -1.18044
H         -3.80884        8.13596       -1.25270
H         -1.03629        9.54603        0.97635
H         -0.40422       11.84342       -0.05296
H          0.13939       12.66810       -2.41365
H          1.07139       12.25911       -4.71889
H          2.00533       10.88242       -6.65194
H          1.82104        8.40948       -7.46667
H         -1.98826        7.48465       -7.09944
H         -3.25666        1.35909       -7.00130
H          0.66846       -0.94530       -8.43492
H         -2.64314       -4.71009       -6.11376
H         -0.83692       -6.17343       -7.36369
