99

C        -11.11213        4.28390       -7.93045
C        -11.75716        5.44962       -8.33707
C        -13.17351        5.51449       -8.32500
C        -13.80830        6.75947       -8.66154
N        -14.31034        7.77577       -8.90493
C        -13.94397        4.39901       -7.93549
C        -15.37633        4.42881       -7.91941
N        -16.53958        4.42561       -7.88764
C        -13.30168        3.24581       -7.48670
C        -11.91591        3.24310       -7.45107
C        -11.10831        2.24857       -6.74877
O        -11.59080        1.44205       -5.97987
C         -9.66824        2.61295       -6.99241
C         -9.67657        3.86096       -7.81135
C         -8.63834        4.43408       -8.47055
C         -8.79161        5.58628       -9.29652
N         -8.93381        6.52736       -9.95940
C         -7.31358        3.90691       -8.44500
N         -6.23539        3.48275       -8.43292
C         -8.66553        1.90523       -6.43780
C         -8.80326        0.64279       -5.75157
C         -8.39979        0.26446       -4.53256
C         -8.65694       -1.15694       -4.42558
C         -9.39104       -1.41136       -5.65366
N         -9.41047       -0.38328       -6.46773
O        -10.00669       -2.57763       -5.85088
C        -10.87933       -2.60242       -6.98626
C         -8.04269       -1.55612       -3.30226
N         -7.53352       -0.49150       -2.54295
C         -7.79397        0.57356       -3.25766
O         -7.69042        1.85054       -2.86934
C         -7.75023        2.01049       -1.44498
C         -7.83100       -2.88809       -2.83491
C         -8.60457       -4.02979       -2.89979
C         -7.96452       -5.20466       -2.33910
N         -8.52537       -6.44355       -2.35259
C         -9.77582       -6.43631       -2.89821
C        -10.47019       -7.74636       -2.89754
O         -9.94776       -8.78052       -2.50180
C        -11.86005       -7.78965       -3.38602
C        -12.46751       -6.70579       -3.86780
C        -11.78812       -5.39838       -3.94443
O        -12.39072       -4.44793       -4.42704
C        -10.40812       -5.30071       -3.40998
N         -9.85406       -4.05036       -3.44002
C         -6.71646       -4.96403       -1.80493
S         -6.35519       -3.27729       -1.99593
C         -5.75793       -5.84225       -1.21929
C         -5.97836       -6.97997       -0.54373
C         -4.67371       -7.52097       -0.23025
C         -3.77614       -6.49753       -0.72040
N         -4.40008       -5.51359       -1.31620
O         -2.47422       -6.58322       -0.44059
C         -1.76552       -5.33373       -0.43158
C         -4.86299       -8.69762        0.37327
N         -6.20351       -8.95077        0.62501
C         -6.85562       -7.95971        0.06608
O         -8.16418       -7.73135        0.17669
C         -8.76937       -8.35814        1.31006
C         -3.89197       -9.65047        0.85026
C         -4.10135      -10.82700        1.46705
C         -2.94843      -11.45691        2.17327
O         -1.76468      -11.33751        1.94280
C         -3.54409      -12.18990        3.30289
C         -2.84578      -12.77412        4.34809
C         -3.59042      -13.29988        5.40784
C         -4.99982      -13.19334        5.40942
C         -5.68104      -12.60274        4.32189
C         -4.94618      -12.13318        3.24265
C         -5.30936      -11.52945        1.92886
C         -6.41577      -11.84957        1.20566
C         -7.52314      -12.54463        1.77515
N         -8.41203      -13.09077        2.27891
C         -6.49692      -11.60572       -0.19195
N         -6.54949      -11.46396       -1.35435
C         -5.77223      -13.66760        6.52114
N         -6.40774      -14.03666        7.41953
C         -2.88856      -13.93182        6.48461
N         -2.30168      -14.44204        7.34571
H        -11.20684        6.34372       -8.62014
H        -13.85822        2.38095       -7.12485
H         -7.62817        2.19513       -6.55317
H        -11.62202       -3.39290       -6.85096
H        -10.28054       -2.82652       -7.87186
H        -11.42389       -1.65969       -7.12472
H         -7.66595        3.07461       -1.20958
H         -6.93554        1.47638       -0.94599
H         -8.71989        1.65830       -1.07090
H        -12.35804       -8.75171       -3.33198
H        -13.49063       -6.73584       -4.22656
H         -1.11671       -5.26498       -1.30813
H         -1.14712       -5.31546        0.47007
H         -2.42698       -4.46102       -0.39055
H         -8.38911       -9.36583        1.50934
H         -9.84708       -8.42948        1.15137
H         -8.57776       -7.71865        2.17654
H         -2.85649       -9.31057        0.75644
H         -1.75821      -12.80200        4.33695
H         -6.76438      -12.51407        4.36236
