113

C         -1.75405        3.87059       -5.06863
C         -1.47393        2.61474       -5.52493
C         -0.26458        2.32717       -6.23083
N          0.71102        2.09062       -6.81335
C         -2.29325        1.48071       -5.26688
N         -2.96611        0.55561       -5.06514
C         -0.84224        5.06067       -5.13377
C         -1.28597        5.99291       -4.20212
C         -0.68605        7.22536       -3.95205
C          0.45299        7.55932       -4.70594
C          0.91349        6.64091       -5.66183
C          0.27506        5.38943       -5.89498
S          2.31407        7.25399       -6.47038
C          2.29116        8.68423       -5.57257
C          1.26188        8.74513       -4.67339
Br         3.54989       10.05477       -5.78695
C         -2.49754        5.53117       -3.53819
O         -2.97706        6.14211       -2.60986
C         -2.92251        4.25547       -4.22156
C         -4.15425        3.70059       -4.18434
C         -5.24905        4.11846       -3.36240
C         -5.26088        4.65496       -2.09515
C         -6.52133        5.18028       -1.65250
C         -7.53737        4.70563       -2.48311
S         -6.87442        3.84857       -3.84306
C         -8.90155        4.93760       -2.19746
O         -9.82110        4.33629       -3.05249
C        -11.02773        5.04368       -3.31616
C         -9.26486        5.67414       -1.04191
C         -8.24228        6.22184       -0.27282
C         -6.88217        6.00483       -0.55848
O         -6.00268        6.63801        0.31634
C         -4.63802        6.76732       -0.04003
S         -8.86498        7.17856        1.02252
C        -10.48803        6.86117        0.62301
C        -10.54025        5.99801       -0.45322
C        -11.60086        7.50694        1.34522
C        -11.65333        7.71421        2.73992
C        -12.76792        8.35482        3.38892
N        -12.76619        8.48156        4.73407
C        -11.70112        8.06417        5.45307
C        -10.64075        7.47613        4.83094
N        -10.62286        7.28111        3.49320
C         -9.48010        7.02978        5.53819
N         -8.55632        6.67882        6.14212
C        -11.76906        8.28475        6.86403
N        -11.80824        8.45634        8.01261
C        -13.87913        8.84914        2.67871
C        -13.86994        8.64701        1.26095
C        -12.71676        7.96083        0.58821
N        -12.88561        7.85466       -0.74375
S        -14.33302        8.54058       -1.12525
N        -14.81609        9.01494        0.37634
C        -15.03756        9.54291        3.29284
C        -16.34111        9.56038        2.84756
C        -17.21366       10.49631        3.50299
C        -16.57160       11.01982        4.62834
S        -14.92791       10.50006        4.70482
C        -17.21934       11.91088        5.50548
O        -16.53181       12.34099        6.64159
C        -17.30161       12.36020        7.84802
C        -18.43863       12.49490        5.10836
C        -19.08696       11.99004        3.98434
C        -18.52466       10.95538        3.20445
O        -19.26888       10.58388        2.08819
C        -18.98616        9.35343        1.44173
S        -20.58929       12.82311        3.71637
C        -20.34631       13.89820        5.02085
C        -19.12177       13.65228        5.60044
C        -21.28466       14.92449        5.33467
C        -21.51515       15.34794        6.58888
C        -21.03305       14.90471        7.90505
C        -21.00696       13.63220        8.37214
C        -20.50043       13.28807        9.65746
N        -20.03041       13.00686       10.68020
C        -21.56554       12.54835        7.63528
N        -22.06185       11.65926        7.07812
C        -20.94781       16.12190        8.75646
C        -21.71256       17.12116        8.14245
C        -22.13690       16.69546        6.79168
O        -22.79166       17.34236        6.00284
C        -22.01110       18.33503        8.74682
C        -21.52569       18.54954       10.05853
C        -20.68880       17.58218       10.63796
C        -20.35408       16.37170        9.98616
S        -20.18203       18.05936       12.21906
C        -21.12879       19.45440       12.16759
C        -21.76927       19.63370       10.97054
Br       -21.28953       20.63403       13.61323
H         -1.09789        7.90362       -3.20932
H          0.67867        4.74238       -6.66514
H          1.08061        9.58671       -4.01431
H         -4.39275        2.87782       -4.85285
H         -4.34759        4.75871       -1.53438
H        -11.29598        4.88931       -4.36518
H        -10.95285        6.12403       -3.15441
H        -11.83321        4.61113       -2.71333
H         -4.20185        7.59839        0.52172
H         -4.51121        7.01191       -1.09448
H         -4.10216        5.86188        0.25988
H        -11.48557        5.66146       -0.85227
H        -16.62164        8.96982        1.99188
H        -16.61288       12.44937        8.69435
H        -17.90947       11.45961        7.98799
H        -17.93067       13.24974        7.90033
H        -19.89226        9.01426        0.93306
H        -18.70841        8.56070        2.14296
H        -18.22370        9.50613        0.66914
H        -18.71151       14.29910        6.36238
H        -21.73299       15.45769        4.49628
H        -22.63464       19.06854        8.24296
H        -19.69695       15.66787       10.48498
H        -22.41374       20.47651       10.75168
