73

C          0.84006       -0.73181        3.78735
C          0.00462        0.17224        4.31611
C         -0.97187        0.73623        3.40704
S         -0.78390        0.00328        1.83974
C          0.57318       -0.96963        2.35962
O          1.20313       -1.73635        1.65333
C         -1.87648        1.65630        3.77919
C         -2.86638        2.24646        2.93421
C         -2.84709        2.55439        1.57074
C         -4.04870        3.14908        1.14865
C         -4.94094        3.27383        2.18510
S         -4.38447        2.73981        3.65388
C         -6.11808        3.87388        1.69623
C         -5.95851        4.15726        0.36034
C         -4.64185        3.68435       -0.07548
C         -4.10602        3.70324       -1.31120
C         -4.81209        4.24329       -2.41794
N         -5.39128        4.69294       -3.32035
C         -2.80904        3.17690       -1.58014
N         -1.75445        2.75249       -1.80900
C         -7.09425        4.81589       -0.16276
C         -8.09650        4.98313        0.80586
S         -7.60605        4.24526        2.31457
C         -9.43820        5.61710        0.69026
C        -10.09479        6.33057        1.72364
C        -11.41048        6.90751        1.57158
N        -11.97468        7.55207        2.62444
C        -11.30796        7.62343        3.80876
C        -10.05840        7.08712        3.94649
N         -9.45264        6.47185        2.90375
C         -9.31661        7.10830        5.17223
N         -8.72769        7.12533        6.17202
C        -11.98200        8.28823        4.88294
N        -12.49372        8.83021        5.77277
C        -12.13683        6.82555        0.35880
C        -11.51704        6.09864       -0.70511
C        -10.14603        5.49698       -0.53799
N         -9.72710        4.86090       -1.64669
S        -10.90422        5.00880       -2.79041
N        -12.03108        5.83576       -1.91988
C        -13.48708        7.42543        0.17296
C        -14.53297        7.57565        1.09643
C        -15.66654        8.19092        0.51655
C        -15.46132        8.46281       -0.81568
S        -13.93171        8.14313       -1.36062
C        -16.64053        9.00801       -1.36344
C        -17.58172        9.11486       -0.36778
C        -17.01872        8.61567        0.88718
C        -17.60994        8.57459        2.09811
C        -18.94737        9.02567        2.29250
N        -20.03888        9.39174        2.42862
C        -16.93118        8.07496        3.24030
N        -16.37224        7.65346        4.16695
C        -18.77438        9.69610       -0.84350
C        -18.72279        9.94099       -2.21805
S        -17.14717        9.51571       -2.85947
C        -19.67496       10.50674       -3.11973
C        -21.00990       10.44128       -3.00296
S        -22.04421       11.23807       -4.16943
C        -23.50300       10.73657       -3.33470
O        -24.64043       11.00823       -3.67600
C        -23.15340        9.92234       -2.16100
C        -21.83038        9.77341       -2.02145
H          1.62900       -1.26067        4.29533
H          0.04935        0.46563        5.35779
H         -1.88318        1.98004        4.81955
H         -1.99409        2.35529        0.93671
H         -7.20188        5.16118       -1.18441
H        -14.45907        7.23965        2.12366
H        -19.63413        9.94481       -0.23710
H        -19.26315       11.03419       -3.98105
H        -23.91743        9.50275       -1.52710
H        -21.42249        9.17014       -1.22392
