96

C          1.87019        0.37287       -4.91400
C          1.19176       -0.63085       -5.66535
N          0.63415       -1.44698       -6.27321
C          1.81436        1.72148       -5.15898
F          1.12831        2.25489       -6.13372
C          2.55657        2.48023       -4.23564
F          2.62321        3.78361       -4.26283
C          3.17943        1.70734       -3.29057
S          2.85595        0.04827       -3.55187
C          3.96166        2.19449       -2.20829
C          4.57996        2.58155       -1.25586
C          5.27679        2.97931       -0.07286
N          5.21765        4.25995        0.16679
C          5.93269        4.36490        1.31580
C          6.41769        3.06920        1.73113
C          7.18916        3.23236        2.99068
O          7.73729        2.38798        3.66281
C          7.10698        4.69592        3.22660
C          6.33288        5.29834        2.17167
N          6.24795        6.63929        2.35945
C          6.92981        6.81993        3.45657
C          7.51744        5.61784        4.08802
C          6.02556        2.12494        0.88244
C          6.28619        0.72123        0.83477
C          5.47417       -0.19102        0.27523
C          5.74312       -1.62520        0.23452
C          5.19951       -2.34729       -0.77981
C          5.43833       -3.77721       -0.88449
C          5.07086       -4.70341       -1.81361
C          4.25281       -4.57938       -3.09234
C          2.73037       -4.74939       -2.81950
N          2.14477       -3.77917       -1.88695
C          4.50378       -3.31099       -3.94739
N          5.86706       -3.22619       -4.47726
C          5.65465       -5.97100       -1.32962
C          5.72799       -7.20326       -1.86662
C          6.41086       -8.37809       -1.14890
C          7.00560       -8.00872        0.20450
C          6.96327       -6.76879        0.71943
C          6.30932       -5.74159       -0.04314
C          6.19932       -4.43031        0.20212
C          6.71227       -3.64993        1.29793
C          6.49340       -2.32344        1.29771
C          5.44546       -9.53312       -1.00059
C          5.77681      -10.83693       -1.01886
C          4.70050      -11.85112       -0.88978
N          3.57786      -11.66935       -0.23501
C          2.91852      -12.84440       -0.40105
C          3.71476      -13.75840       -1.17719
C          2.95672      -15.02675       -1.35249
O          3.26621      -16.03835       -1.94112
C          1.69384      -14.73852       -0.64059
C          1.75275      -13.40706       -0.09555
N          0.59178      -13.12517        0.55040
C         -0.10115      -14.22013        0.39468
C          0.53350      -15.31765       -0.36524
C          4.86297      -13.19545       -1.54109
C          5.93451      -13.68679       -2.35228
C          5.74135      -14.55426       -3.35537
C          6.79119      -15.00263       -4.19039
C          7.58674      -15.41778       -4.98421
C          8.43548      -15.93420       -5.99713
C          8.37688      -17.21092       -6.50062
C          9.30532      -17.43336       -7.53035
C         10.04368      -16.31922       -7.83504
S          9.63641      -15.01323       -6.79390
C         11.00487      -16.22401       -8.87007
N         11.78322      -16.13062       -9.72579
F          9.41799      -18.57493       -8.15806
F          7.53386      -18.11816       -6.08159
H          7.08968        7.80259        3.92519
H          8.10577        5.54825        4.98044
H          7.21828        0.40645        1.30254
H          4.52986        0.10928       -0.17326
H          4.59191       -1.86050       -1.52717
H          4.52927       -5.41527       -3.74907
H          2.53951       -5.75883       -2.43669
H          2.18166       -4.66952       -3.76659
H          2.60015       -3.89002       -0.97795
H          1.17060       -4.04054       -1.72038
H          4.29511       -2.40609       -3.38578
H          3.81303       -3.29228       -4.79870
H          6.53271       -3.24766       -3.70424
H          5.99476       -2.32625       -4.93871
H          5.32588       -7.40630       -2.85322
H          7.24947       -8.69426       -1.78458
H          7.51660       -8.78984        0.76172
H          7.41811       -6.53307        1.67442
H          7.26511       -4.12552        2.09754
H          6.86570       -1.72965        2.12659
H          4.39754       -9.26113       -0.87355
H          6.80172      -11.17130       -1.11890
H         -1.11661      -14.36753        0.79146
H          0.14275      -16.28386       -0.61399
H          6.93410      -13.31271       -2.14975
H          4.75452      -14.94264       -3.59283
