117

C         -0.84391        1.27716        2.51626
C          0.54603        1.32067        2.54567
F          1.16318        2.40601        3.03768
C          1.29463        0.24869        2.08158
F          2.63358        0.28875        2.12077
C          0.66182       -0.88373        1.57848
C         -0.74123       -0.95956        1.54751
C         -1.51495        0.14149        2.02184
C         -2.93021        0.06660        2.00455
C         -3.57241       -1.07809        1.53239
C         -2.77907       -2.14829        1.10551
C         -1.38922       -2.10862        1.08085
C         -3.61599       -3.32217        0.79345
O         -3.22028       -4.39051        0.36620
C         -5.02924       -2.93880        1.13846
C         -5.01585       -1.47269        1.40788
C         -6.07713       -0.63232        1.39343
C         -7.40829       -1.07712        1.15403
N         -8.49623       -1.44274        0.97389
C         -5.94667        0.77791        1.56334
N         -5.82651        1.92025        1.70712
C         -6.00917       -3.84718        1.29717
C         -5.85314       -5.29934        1.12534
C         -5.41563       -6.11312        2.16456
C         -5.34875       -5.82683        3.58404
O         -5.79142       -4.84392        4.14187
O         -4.76621       -6.90428        4.15727
C         -4.44228       -7.85683        3.24645
O         -3.75121       -8.83091        3.44558
C         -5.01740       -7.42217        1.98081
C         -5.14234       -8.06876        0.74923
C         -5.64049       -7.26907       -0.28552
C         -6.00012       -5.94788       -0.09539
C         -6.57450       -5.46309       -1.33365
O         -7.12132       -4.39428       -1.50669
O         -6.44507       -6.47192       -2.23108
C         -5.87094       -7.57617       -1.68903
O         -5.59454       -8.60547       -2.27380
C         -4.79485       -9.47033        0.50670
C         -5.02863      -10.47428        1.36244
C         -4.66009      -11.85703        1.21482
N         -4.59190      -12.60766        0.03634
C         -4.71898      -12.13477       -1.32568
C         -3.36238      -11.72414       -1.88678
C         -4.20382      -13.94309        0.29405
O         -4.02632      -14.87087       -0.46866
C         -4.03321      -13.95304        1.75241
C         -4.34265      -12.64504        2.24688
C         -4.14174      -12.65252        3.70768
O         -4.30113      -11.73133        4.48057
N         -3.72448      -13.97663        3.95675
C         -3.28371      -14.39751        5.27249
C         -1.78915      -14.20442        5.48492
C         -3.66784      -14.72031        2.77698
C         -3.23074      -16.07828        2.68693
C         -3.87532      -17.11364        3.24798
C         -3.37098      -18.44506        3.16091
S         -1.67121      -18.73879        3.31950
C         -1.80001      -20.40523        2.93079
C         -3.12426      -20.78541        3.00297
C         -4.02731      -19.66069        3.09490
C         -5.42261      -19.78771        3.13308
C         -5.85481      -21.14051        3.14748
C         -7.27421      -21.36577        3.21625
N         -8.42303      -21.52483        3.26680
C         -4.94856      -22.26017        3.10311
C         -5.45788      -23.60224        3.20321
N         -5.83634      -24.69399        3.29862
C         -3.53939      -22.12181        2.99224
C         -0.60700      -21.15410        2.75054
C         -0.10960      -21.49128        1.55126
C          0.97976      -22.51771        1.52594
O          1.64362      -22.92195        2.45717
C          1.05397      -22.98727        0.13428
C          2.00395      -23.85903       -0.37265
C          2.01401      -24.08447       -1.75301
C          0.99835      -23.50579       -2.57137
C          1.03527      -23.70644       -3.95816
C          2.07393      -24.43288       -4.52915
C          3.06677      -24.98812       -3.73425
C          3.03673      -24.83276       -2.35167
F          4.07808      -25.66427       -4.29487
F          2.11910      -24.57092       -5.86093
C          0.00917      -22.68256       -2.00391
C          0.07945      -22.35654       -0.65653
C         -0.53676      -21.26325        0.16172
C         -0.93137      -20.09808       -0.41093
C         -0.60606      -18.83569        0.16459
N         -0.24503      -17.79740        0.53633
C         -1.47854      -20.01898       -1.72381
N         -1.95092      -19.97717       -2.78291
H         -1.39098        2.13892        2.89218
H          1.27967       -1.70601        1.22680
H         -3.48647        0.91352        2.39683
H         -0.82671       -2.97300        0.73411
H         -7.00721       -3.57503        1.64336
H         -4.31961       -9.65524       -0.44731
H         -5.47833      -10.26211        2.33328
H         -5.44982      -11.32330       -1.37686
H         -5.11831      -12.94865       -1.94221
H         -2.85432      -10.99971       -1.24224
H         -3.47340      -11.28100       -2.87994
H         -2.69745      -12.59029       -1.96604
H         -3.56310      -15.44089        5.44033
H         -3.81877      -13.80026        6.02023
H         -1.20285      -14.72965        4.72456
H         -1.49581      -14.58939        6.46730
H         -1.51870      -13.14395        5.44412
H         -2.33510      -16.22218        2.08278
H         -4.80939      -16.94889        3.77889
H         -6.11751      -18.95598        3.17619
H         -2.86970      -22.97457        2.96150
H         -0.12747      -21.52143        3.65841
H          2.75718      -24.28461        0.28578
H          0.28756      -23.26787       -4.61448
H          3.83842      -25.26969       -1.76193
H         -0.74496      -22.26013       -2.65970
