94

C        -12.79781      -10.24296       -1.77130
S        -12.70935      -11.84208       -2.40728
C        -14.24075      -11.71877       -3.18264
C        -14.84466      -12.82346       -3.97548
C        -15.72476      -13.73115       -3.12726
C        -14.77769      -10.48638       -2.96254
C        -13.96894       -9.67838       -2.16612
N        -14.40262       -8.43109       -1.84181
C        -15.61587       -8.26413       -2.40376
S        -16.28869       -9.62868       -3.42994
C        -16.45568       -7.11190       -2.26308
C        -16.05168       -6.06968       -1.52195
N        -16.72708       -4.89741       -1.24946
C        -16.28608       -3.84463       -0.49948
S        -17.45436       -2.88516        0.33833
C        -16.25049       -1.98407        1.11048
N        -16.61083       -0.99878        2.08223
O        -15.90686       -0.95018        3.09929
O        -17.56886       -0.25919        1.82410
C        -14.97791       -2.31947        0.71905
C        -15.00082       -3.35300       -0.27055
C        -13.80615       -3.81271       -0.92359
C        -13.65971       -3.86460       -2.25887
C        -12.49346       -4.41232       -2.92204
C        -12.24412       -4.38362       -4.24913
C        -13.08430       -3.65004       -5.26465
C        -11.00667       -5.04599       -4.81867
N        -11.37005       -6.23306       -5.57373
C        -11.73997       -6.26953       -6.89774
C        -12.11180       -7.34131       -7.61169
C        -12.61603       -7.24998       -8.96740
C        -13.83087       -7.69578       -9.36089
C        -14.85718       -8.40375       -8.62162
C        -16.01132       -8.70652       -9.24886
C        -16.26244       -8.32689      -10.63894
C        -15.36151       -7.64060      -11.37100
C        -14.09298       -7.28797      -10.75863
C        -13.04155       -6.58946      -11.24768
C        -12.02952       -6.63074      -10.17394
C        -10.74797       -6.26545      -10.30767
C        -12.99517       -5.93112      -12.54372
C        -13.81440       -4.94041      -12.93518
C        -13.97327       -4.53789      -14.37491
O        -13.20758       -4.73305      -15.29324
C        -15.32092       -3.91534      -14.45725
C        -15.94871       -3.38247      -15.57047
C        -17.26024       -2.89672      -15.42168
C        -17.94727       -3.07635      -14.18079
C        -19.28281       -2.66434      -14.06259
C        -19.90441       -2.00685      -15.11725
C        -19.21618       -1.76220      -16.29694
C        -17.91135       -2.21937      -16.46525
F        -19.80263       -1.07373      -17.28579
F        -21.16938       -1.58899      -14.97285
C        -17.27250       -3.60951      -13.07034
C        -15.93290       -3.93648      -13.19527
C        -14.87608       -4.24767      -12.20570
C        -14.73699       -3.58569      -11.02901
C        -13.46429       -3.44243      -10.40477
N        -12.42122       -3.22731       -9.93220
C        -15.78164       -2.79631      -10.47145
N        -16.64697       -2.15767      -10.03834
H        -12.01202       -9.82656       -1.15851
H        -14.05483      -13.42867       -4.43776
H        -15.43795      -12.41609       -4.80229
H        -15.15412      -14.20167       -2.31915
H        -16.14955      -14.52862       -3.74613
H        -16.55389      -13.17669       -2.67523
H        -17.41886       -7.09157       -2.76066
H        -15.07920       -6.12234       -1.03481
H        -17.72505       -4.93961       -1.44584
H        -14.08394       -1.82847        1.08755
H        -12.98655       -4.12133       -0.27861
H        -14.48396       -3.53181       -2.88312
H        -11.78958       -4.92923       -2.27019
H        -13.82671       -2.98397       -4.81966
H        -13.61790       -4.35503       -5.90816
H        -12.44583       -3.01827       -5.89253
H        -10.32243       -5.34801       -4.01625
H        -10.44651       -4.34049       -5.44387
H        -11.61191       -7.04857       -5.01715
H        -11.74532       -5.28282       -7.36134
H        -12.10714       -8.32684       -7.15591
H        -14.68364       -8.68725       -7.59019
H        -16.79563       -9.25001       -8.72998
H        -17.21158       -8.62877      -11.07266
H        -15.56048       -7.38248      -12.40393
H        -10.36185       -5.85509      -11.23405
H        -10.03878       -6.38538       -9.49433
H        -12.29835       -6.36804      -13.25777
H        -15.41880       -3.32107      -16.51794
H        -19.84503       -2.81973      -13.14510
H        -17.40703       -2.01073      -17.40475
H        -17.78960       -3.70960      -12.11906
