93

C         -6.70255        1.00371       -2.48511
S         -5.75870        2.34671       -1.97996
C         -7.06070        3.01954       -1.07020
C         -8.16185        2.20778       -1.19788
C         -7.97611        1.03061       -1.95688
C         -9.39512        2.63032       -0.59472
C         -9.45023        3.82697        0.11523
S        -11.10122        4.03518        0.61356
C        -11.63156        2.59769       -0.15197
C        -10.58885        1.88189       -0.68886
C         -8.28991        4.61142        0.35837
C         -7.09698        4.18465       -0.29191
N         -8.11970        5.73712        1.24164
C         -8.99371        6.71323        1.62409
S        -10.13217        7.43053        0.52329
C        -10.79016        8.41096        1.72772
N        -11.92110        9.24415        1.46053
O        -12.78398        9.29562        2.34820
O        -11.92964        9.88305        0.40161
C        -10.14146        8.30354        2.92825
C         -9.05198        7.37299        2.85907
C         -8.26144        7.14889        4.04154
C         -6.92891        7.03415        4.18291
C         -6.35952        6.78139        5.50060
C         -6.21434        7.64943        6.52845
C         -6.41728        9.14099        6.43103
C         -5.91043        7.13347        7.92896
N         -4.65980        7.68141        8.41732
C         -4.07830        7.33626        9.62296
C         -4.62499        7.02088       10.80926
C         -3.81575        6.60425       11.95089
C         -2.82383        7.30207       12.52747
C         -1.88607        6.78429       13.49980
C         -0.83955        7.59663       13.72487
C         -0.90380        8.84337       12.98342
S         -2.45333        8.95563       12.14559
C          0.04875        9.78585       12.85168
C          1.40551        9.77264       13.36301
C          2.16855       10.78380       12.91281
C          1.46258       11.68073       12.01640
S         -0.21312       11.24133       11.89938
C          1.98869       12.72139       11.34946
C          1.25554       13.53241       10.38243
C          1.60253       14.74070        9.92546
C          0.95006       15.36506        8.72394
O         -0.12438       15.10363        8.23154
C          1.95491       16.32409        8.20685
C          1.86731       17.10873        7.07310
C          3.01010       17.82045        6.68087
C          4.23746       17.65209        7.39808
C          5.40175       18.26628        6.91752
C          5.34392       19.09018        5.79850
C          4.13628       19.32408        5.15592
C          2.97354       18.68860        5.58059
F          4.08092       20.16108        4.11121
F          6.46818       19.66693        5.35287
C          4.26805       16.89807        8.58447
C          3.10105       16.29727        9.01880
C          2.72190       15.60289       10.26692
C          2.98466       16.08565       11.50413
C          2.13376       15.78535       12.61176
N          1.40878       15.59792       13.49781
C          3.97513       17.08642       11.73031
N          4.78690       17.88808       11.88940
H         -6.27632        0.25892       -3.14437
H         -8.70726        0.25668       -2.15223
H        -12.67896        2.32664       -0.14747
H        -10.71516        0.91132       -1.15216
H         -6.19332        4.78177       -0.19152
H         -7.39227        5.50270        1.91319
H        -10.41420        8.87394        3.81001
H         -8.84512        7.12961        4.96419
H         -6.24948        7.05841        3.33631
H         -6.13211        5.72799        5.66622
H         -6.64948        9.47512        5.41573
H         -5.50432        9.66824        6.73326
H         -7.22959        9.46438        7.08919
H         -5.84239        6.03896        7.92704
H         -6.73519        7.40748        8.59729
H         -3.96919        7.80855        7.67981
H         -2.99134        7.34317        9.53232
H         -5.70136        7.01912       10.94779
H         -4.03107        5.59674       12.29973
H         -1.99945        5.80800       13.95004
H         -0.02384        7.34788       14.39028
H          1.78003        8.99380       14.01459
H          3.20983       10.90782       13.16138
H          3.04362       12.94550       11.48877
H          0.37577       13.06839        9.92976
H          0.93738       17.15400        6.51209
H          6.36250       18.11904        7.40398
H          2.04746       18.88830        5.04794
H          5.18997       16.80619        9.15335
