107

C         12.29555       -5.97616        9.07776
C         11.92073       -6.85959       10.08281
F         12.80541       -7.18471       11.03415
C         10.65633       -7.43250       10.10090
C          9.73322       -7.10247        9.10754
C         10.08825       -6.22983        8.06789
C         11.40240       -5.67430        8.04204
C         11.82188       -4.89332        6.95120
C         10.97527       -4.74545        5.86523
C          9.65202       -5.20237        5.95825
C          9.18534       -5.93245        7.03790
C          8.89580       -4.84539        4.74104
O          7.72192       -5.06715        4.53034
C          9.87323       -4.11816        3.85674
C         11.19670       -4.32657        4.45567
C         12.36478       -4.54751        3.79675
C         12.39250       -4.72430        2.38012
N         12.40719       -4.92307        1.24343
C         13.61239       -4.73022        4.45614
N         14.63006       -4.83578        4.99883
C          9.38089       -3.33276        2.87914
C         10.10310       -2.37237        2.09158
S         11.46116       -1.50687        2.73629
C         11.86664       -0.73970        1.24849
C         10.86995       -0.98521        0.32215
C          9.82749       -1.86336        0.82959
C          8.68011       -2.19166        0.08865
C          8.63742       -1.54990       -1.16561
F          7.54868       -1.73430       -1.92897
C          9.67110       -0.72253       -1.67030
F          9.52143       -0.16190       -2.88112
C         10.84933       -0.43568       -0.97007
C         13.07624        0.01527        1.21634
C         13.19051        1.11979        0.46920
C         14.42099        1.80078        0.34790
S         15.52636        1.30090       -0.84913
C         16.57904        2.61941       -0.54266
C         16.09223        3.42238        0.47518
C         14.85524        2.93444        1.00146
C         14.13466        3.67042        2.07864
C         14.29534        5.15322        1.87798
O         13.37245        5.94816        2.00945
C         15.70537        5.65652        1.57393
O         16.00977        6.80764        1.86810
C         16.70166        4.69593        0.97741
C         17.71525        2.74956       -1.38091
C         18.88870        3.21183       -0.93136
C         20.01027        3.42920       -1.78401
S         21.12864        4.65526       -1.27750
C         22.14704        4.47228       -2.64639
C         21.63058        3.52159       -3.50140
C         20.43605        2.87928       -2.98189
C         19.79494        1.82079       -3.64797
C         20.37718        1.52372       -4.88981
F         19.79669        0.56586       -5.63149
C         21.52937        2.17582       -5.40228
F         21.98690        1.79985       -6.60794
C         22.22980        3.18723       -4.72143
C         23.34904        5.22855       -2.69755
C         23.46863        6.42661       -3.28965
C         22.43301        7.15770       -3.98538
C         22.49291        8.37949       -4.53591
C         21.37949        8.72016       -5.49113
O         20.30341        8.17294       -5.61784
C         21.88733        9.82088       -6.32097
C         21.24214       10.38165       -7.41419
C         21.89236       11.40675       -8.11150
C         23.19784       11.80881       -7.70815
C         23.84150       12.84074       -8.40290
C         23.20573       13.46837       -9.46723
C         21.93574       13.08254       -9.87314
C         21.28081       12.04918       -9.20098
F         23.82908       14.46596      -10.10739
C         23.82981       11.18780       -6.61300
C         23.15974       10.21476       -5.88480
C         23.49654        9.45148       -4.64226
C         24.38625        9.86696       -3.70451
C         24.49796        9.28025       -2.41080
N         24.64014        8.83042       -1.35284
C         25.24253       10.99035       -3.89004
N         25.95068       11.89830       -4.04180
H         13.30377       -5.57013        9.09452
H         10.40051       -8.14111       10.88235
H          8.74817       -7.56460        9.13105
H         12.82845       -4.48538        6.95024
H          8.16672       -6.31140        7.03948
H          8.31051       -3.39905        2.67562
H          7.87023       -2.83280        0.41038
H         11.61047        0.17116       -1.43685
H         13.91882       -0.32559        1.81664
H         12.36952        1.53703       -0.10048
H         14.54994        3.40345        3.05598
H         13.06585        3.43404        2.08087
H         17.44085        4.45595        1.74890
H         17.19472        5.22496        0.15505
H         17.56798        2.47484       -2.41804
H         18.99948        3.50194        0.11061
H         18.94726        1.24759       -3.30218
H         23.11658        3.64364       -5.13737
H         24.21793        4.79473       -2.20612
H         24.46281        6.85967       -3.26393
H         21.50695        6.59518       -4.13340
H         20.25618       10.02694       -7.70401
H         24.83372       13.18106       -8.11872
H         21.46252       13.59067      -10.70737
H         20.28498       11.75746       -9.52966
H         24.83845       11.49919       -6.36255
