100

C          4.69780       -6.69949        8.42578
C          3.76278       -6.76447        9.45026
F          4.10241       -7.33800       10.61178
C          2.47904       -6.26148        9.28608
C          2.12545       -5.64810        8.08328
C          3.04841       -5.56354        7.02897
C          4.34930       -6.12845        7.19718
C          5.26422       -6.14497        6.13048
C          4.87398       -5.62572        4.90504
C          3.63938       -4.97174        4.79543
C          2.70931       -4.93848        5.82158
C          3.53208       -4.31452        3.47569
O          2.60489       -3.65052        3.06534
C          4.84761       -4.57801        2.80273
C          5.48792       -5.66016        3.55408
C          6.11602       -6.75268        3.05763
C          6.13949       -7.05851        1.66681
N          6.11175       -7.39907        0.55760
C          6.61731       -7.79443        3.89306
N          7.03613       -8.62697        4.57893
C          5.29777       -3.67922        1.91003
C          6.63885       -3.60432        1.46048
S          7.09923       -4.34148       -0.04581
C          8.74394       -3.81144        0.05547
C          8.86434       -3.02648        1.15957
C          7.72472       -2.90948        1.92171
O          7.94956       -2.08080        2.95656
C          9.27886       -1.69390        2.78493
S         10.07138       -0.65037        3.77563
O          9.86211       -2.29392        1.67694
C          9.67061       -4.20866       -0.92732
C          9.84571       -3.46894       -2.03079
C         10.73517       -3.87526       -3.06869
S         10.27491       -3.50694       -4.69236
C         11.62687       -4.31038       -5.40478
C         12.46628       -4.76623       -4.40536
C         11.95177       -4.53396       -3.06997
C         12.62983       -4.93440       -1.90804
C         13.83685       -5.59637       -2.18261
F         14.54480       -6.05050       -1.13599
C         14.34604       -5.80775       -3.49072
F         15.52904       -6.42890       -3.61878
C         13.68981       -5.40107       -4.66619
C         11.73491       -4.47265       -6.82043
C         11.31067       -3.55807       -7.70577
C         11.47195       -3.74300       -9.13008
C         11.08594       -2.89041      -10.09974
C         10.33574       -1.60295       -9.88703
C         11.40496       -3.21069      -11.53908
N         12.70499       -2.64797      -11.84132
C         13.34842       -2.75206      -13.04257
C         14.57409       -2.30006      -13.34028
C         15.14912       -2.43971      -14.65948
C         14.61469       -1.96900      -15.79517
C         15.05167       -2.56363      -17.09576
O         16.09669       -3.12143      -17.35359
C         13.88436       -2.41917      -17.98648
C         13.75425       -2.96609      -19.25063
C         12.53442       -2.80079      -19.91408
C         11.45747       -2.12356      -19.26603
C         10.23578       -1.99229      -19.93940
C         10.09185       -2.49357      -21.22882
C         11.13973       -3.13784      -21.87209
C         12.35779       -3.29921      -21.21313
F          8.92231       -2.34522      -21.86421
C         11.62846       -1.58498      -17.97458
C         12.85999       -1.69934      -17.34750
C         13.39904       -1.19074      -16.05898
C         13.01341       -0.05723      -15.42376
C         13.82730        0.56730      -14.43042
N         14.50309        1.12689      -13.67011
C         11.84912        0.67214      -15.79644
N         10.89060        1.25138      -16.10141
H          5.68665       -7.11690        8.59684
H          1.76157       -6.35129       10.09551
H          1.11665       -5.25553        7.97033
H          6.24573       -6.58265        6.27030
H          1.75051       -4.45104        5.67523
H          4.63323       -2.88657        1.57354
H         10.18158       -5.15112       -0.76560
H          9.24992       -2.57036       -2.18761
H         12.31504       -4.77932       -0.88698
H         14.12461       -5.56955       -5.64129
H         12.20802       -5.38521       -7.17514
H         10.86365       -2.62955       -7.36412
H         12.00105       -4.64961       -9.42916
H          9.87791       -1.52860       -8.89753
H          9.51553       -1.51609      -10.60791
H         11.00537       -0.74797      -10.02032
H         10.64435       -2.79184      -12.20832
H         11.41130       -4.29508      -11.70541
H         13.27754       -2.37364      -11.04548
H         12.74836       -3.26012      -13.79719
H         15.19059       -1.81887      -12.58493
H         16.04017       -3.06734      -14.70125
H         14.58337       -3.50960      -19.69549
H          9.38723       -1.49101      -19.48122
H         11.00323       -3.50981      -22.88259
H         13.17098       -3.80893      -21.72647
H         10.79003       -1.08813      -17.49470
