106

C         -4.89717        0.02680       -5.10322
C         -3.86941       -0.86026       -4.73811
C         -3.67283       -1.08601       -3.39460
C         -4.46596       -0.49260       -2.44057
C         -3.97588       -0.92746       -1.13342
O         -4.51729       -0.64939       -0.07741
N         -2.86280       -1.70094       -1.36251
C         -2.68582       -1.91418       -2.70191
O         -1.91011       -2.64807       -3.28185
C         -2.17592       -2.41343       -0.29743
C         -0.67327       -2.55920       -0.49115
C         -5.51051        0.35526       -2.77831
C         -5.73580        0.64973       -4.14387
C         -6.80196        1.61043       -4.55131
S         -7.13375        2.93163       -3.49983
C         -8.42673        3.53688       -4.44394
C         -8.60216        2.74912       -5.57042
C         -7.60787        1.69442       -5.68545
C         -7.57180        0.79968       -6.89828
C         -8.54474        1.21121       -8.01052
C         -9.89619        1.73076       -7.50707
N        -10.67638        0.69699       -6.82440
C         -9.68082        2.96269       -6.60675
C         -9.11331        4.74092       -4.08570
C         -9.32729        5.10502       -2.81344
C         -9.91284        6.37140       -2.42404
C        -11.03491        6.51352       -1.70495
C        -11.47524        7.75431       -1.11123
C        -12.43076        7.58660       -0.18448
C        -12.82138        6.19650       -0.00004
S        -12.10449        5.20761       -1.27385
C        -13.48007        5.67465        1.05143
C        -13.87211        6.36642        2.26473
C        -14.01780        5.54024        3.31323
C        -13.76439        4.14647        2.98338
S        -13.78928        3.95427        1.24911
C        -13.48855        3.19828        3.89493
C        -13.06188        1.85043        3.63906
S        -11.85535        1.49824        2.46121
C        -11.91644       -0.18482        2.73147
C        -12.71506       -0.48406        3.81494
C        -13.38588        0.68875        4.33464
C        -14.36286        0.59363        5.47551
C        -14.32446       -0.76547        6.18661
C        -14.19365       -1.96386        5.22794
N        -15.34823       -2.09454        4.33124
C        -12.88573       -1.85102        4.42237
C        -11.14726       -1.02168        1.88353
C        -11.75886       -1.75423        0.93798
C        -11.02863       -2.39942       -0.16254
C        -11.66495       -2.45142       -1.41055
C        -10.89666       -2.81251       -2.49768
C         -9.56310       -3.15802       -2.38194
C         -9.02128       -3.27338       -3.73430
O         -7.85504       -3.52478       -3.98922
N        -10.04709       -2.98224       -4.58781
C        -11.21449       -2.73633       -3.91803
O        -12.31366       -2.46318       -4.36113
C         -9.91460       -2.83056       -6.01768
C        -10.02930       -4.14882       -6.75560
C         -8.93538       -3.22121       -1.15575
C         -9.68514       -2.83798       -0.03722
H         -5.00919        0.23622       -6.16124
H         -3.24129       -1.33769       -5.48346
H         -2.63532       -3.40632       -0.22016
H         -2.36319       -1.89379        0.64915
H         -0.43401       -3.16625       -1.37007
H         -0.22857       -3.05819        0.37542
H         -0.19290       -1.58352       -0.61184
H         -6.11566        0.78018       -1.98584
H         -7.76709       -0.23310       -6.59229
H         -6.57228        0.83131       -7.34383
H         -8.68144        0.37138       -8.70299
H         -8.07743        2.01213       -8.60122
H        -10.48950        2.04414       -8.37423
H        -10.25880        0.46585       -5.92308
H        -10.71765       -0.15326       -7.37923
H        -10.62729        3.23104       -6.11977
H         -9.39091        3.81596       -7.23307
H         -9.46803        5.37502       -4.89382
H         -9.03536        4.46272       -1.98338
H         -9.29267        7.24069       -2.63212
H        -11.02081        8.70694       -1.34563
H        -12.83828        8.39706        0.40234
H        -13.95401        7.44219        2.33631
H        -14.23024        5.87286        4.32017
H        -13.53386        3.47283        4.94764
H        -15.37192        0.77007        5.08326
H        -14.15971        1.38124        6.21075
H        -15.21801       -0.87269        6.81356
H        -13.46638       -0.77881        6.87290
H        -14.14704       -2.88194        5.82702
H        -15.28512       -1.39954        3.58603
H        -16.21124       -1.89744        4.83500
H        -12.84736       -2.63259        3.65453
H        -12.03330       -2.02779        5.09367
H        -10.06744       -0.92606        1.93826
H        -12.84524       -1.74677        0.86060
H        -12.68904       -2.11837       -1.55527
H         -8.94589       -2.36662       -6.23234
H        -10.70215       -2.15667       -6.36691
H         -9.13929       -4.76369       -6.59157
H        -10.12573       -3.96631       -7.83060
H        -10.90280       -4.71635       -6.42084
H         -7.88558       -3.48131       -1.07003
H         -9.19122       -2.81981        0.93302
