62

C         -0.04869       -0.74882        1.51987
O          0.03153        0.59479        1.72431
C         -0.05189        1.13137        0.46543
N         -0.17789        0.23620       -0.49492
C         -0.15362       -0.96493        0.16971
C         -0.02973        2.57179        0.38126
C          0.56668        3.37602        1.32294
N          0.58834        4.72367        1.25287
C         -0.01421        5.30543        0.20576
N         -0.62398        4.61028       -0.77045
C         -0.60783        3.25903       -0.66284
C         -0.00104        6.77724        0.14931
N         -0.54262        7.59516       -0.86305
C         -1.23033        7.15984       -2.06291
C         -2.72122        6.95275       -1.84785
C         -0.37471        8.96609       -0.57553
O         -0.72551        9.94078       -1.20868
C          0.34673        8.95168        0.70540
C          0.54301        7.57538        1.08663
C          1.26148        7.57458        2.37751
O          1.65228        6.63211        3.03764
N          1.39769        8.95224        2.66061
C          2.10023        9.39666        3.84623
C          3.59289        9.56382        3.60935
C          0.86929        9.74642        1.64427
C          0.88049       11.18563        1.67758
C          1.38712       11.94796        0.69404
C          1.40131       13.41332        0.65968
N          0.83527       14.10370        1.66466
C          0.89019       15.44470        1.56129
C          1.49687       16.10814        0.51818
C          2.04333       15.31033       -0.46259
N          2.00589       13.96298       -0.40723
C          2.71855       15.91412       -1.62215
C          2.92584       15.24113       -2.76382
C          3.61901       15.82484       -3.85393
O          3.77763       17.18170       -4.07319
C          4.48494       17.27077       -5.22982
N          4.81580       16.12512       -5.77322
C          4.27052       15.20806       -4.91344
H         -0.01522       -1.37518        2.39902
H         -0.22006       -1.90871       -0.35348
H          1.07512        2.96432        2.19138
H         -1.10920        2.73157       -1.47192
H         -0.75344        6.26511       -2.47116
H         -1.10245        7.93687       -2.82791
H         -2.91995        6.21397       -1.06586
H         -3.19209        6.60690       -2.77312
H         -3.20689        7.88860       -1.55233
H          1.95982        8.63592        4.62391
H          1.65481       10.32257        4.22123
H          4.02826        8.67054        3.14884
H          4.10792        9.74155        4.55887
H          3.79286       10.41312        2.94892
H          0.43978       11.65165        2.55631
H          1.83924       11.49029       -0.18001
H          0.41158       15.99490        2.36856
H          1.51939       17.19047        0.47526
H          3.06955       16.93498       -1.50351
H          2.57752       14.21672       -2.87442
H          4.70584       18.26579       -5.58919
H          4.37710       14.14492       -5.08252
