98

C          4.89078        3.68426       -1.37484
C          5.21729        4.99501       -1.59265
S          6.60153        5.10055       -2.62980
C          6.73233        3.40403       -2.74754
Cl         7.99936        2.71499       -3.67090
C          5.76566        2.77373       -2.02327
C          5.45098        1.39869       -1.74624
O          5.93117        0.39839       -2.23891
C          4.36028        1.52658       -0.68312
C          3.88727        2.95864       -0.63392
C          2.72994        3.44979       -0.12949
C          2.39929        4.83967       -0.20249
N          2.14093        5.96938       -0.25486
C          1.74117        2.61466        0.46125
N          0.94690        1.92150        0.95807
C          4.07429        0.53182        0.18208
C          4.66657       -0.75939        0.13995
S          5.98985       -1.16529        1.19182
C          4.32760       -1.87424       -0.57798
C          3.38331       -2.20550       -1.61321
O          2.62675       -1.43403       -2.17907
N          3.54173       -3.57019       -1.80319
C          2.83504       -4.31746       -2.82204
C          3.65265       -4.40529       -4.10233
C          4.50086       -4.13819       -0.97709
O          4.81094       -5.31190       -0.86427
C          5.03449       -3.03505       -0.21835
C          6.03619       -2.83572        0.69678
C          7.01396       -3.71287        1.21965
N          6.89007       -4.47651        2.38016
C          5.71770       -4.61915        3.21367
C          4.90530       -5.84853        2.83260
C          8.03053       -5.27992        2.59589
O          8.25655       -6.08068        3.47900
C          8.88017       -4.95439        1.44097
C          8.19812       -3.96208        0.64951
C          9.06306       -3.65120       -0.50370
O          8.85431       -2.83479       -1.37664
N         10.14668       -4.54585       -0.33894
C         11.17827       -4.69590       -1.34833
C         12.40658       -3.83762       -1.10767
C         10.02380       -5.28343        0.83940
C         10.98203       -6.24775        1.30029
C         11.23702       -7.41697        0.69357
C         12.21347       -8.32972        1.18366
S         13.13344       -9.27834        0.05363
C         12.60505       -8.68132        2.44862
C         12.25943       -8.30567        3.79933
O         11.52708       -7.39816        4.15007
N         12.96912       -9.17673        4.60350
C         12.94861       -9.11857        6.04961
C         11.59060       -9.49326        6.61532
C         13.71390      -10.09135        3.89442
O         14.39535      -10.99930        4.33734
C         13.53529       -9.74357        2.50423
C         13.99822      -10.17087        1.28270
C         14.89218      -11.20257        0.85640
C         15.97627      -11.65673        1.50937
C         16.42459      -13.06960        1.14329
O         16.27116      -13.66179        0.09348
C         16.97334      -13.53786        2.39047
C         17.44148      -14.72620        2.86046
S         17.83273      -14.63745        4.52122
C         17.41643      -12.95840        4.60831
C         17.03031      -12.51540        3.37335
C         16.64455      -11.26688        2.77492
C         17.01647      -10.02992        3.16901
C         17.60253       -9.79316        4.44444
N         18.04281       -9.59449        5.49992
C         16.89842       -8.90828        2.30305
N         16.83138       -8.00015        1.58307
Cl        17.65116      -16.20136        2.01743
H          4.76833        5.90928       -1.22813
H          3.39355        0.68316        1.00803
H          1.87790       -3.82763       -3.03162
H          2.63452       -5.32659       -2.44664
H          3.86538       -3.40782       -4.50136
H          3.11188       -4.97285       -4.86558
H          4.61207       -4.90197       -3.92218
H          5.10396       -3.71490        3.16851
H          6.05664       -4.73555        4.25020
H          4.52802       -5.76945        1.80946
H          4.05167       -5.96881        3.50591
H          5.51262       -6.75876        2.89061
H         10.74307       -4.42263       -2.31618
H         11.46747       -5.74751       -1.42974
H         12.14246       -2.77960       -1.02114
H         13.10319       -3.94759       -1.94644
H         12.93074       -4.13614       -0.19466
H         11.49742       -5.95891        2.21304
H         10.70193       -7.68095       -0.21722
H         13.20795       -8.09707        6.34804
H         13.71270       -9.79255        6.45314
H         10.80127       -8.84445        6.22342
H         11.59544       -9.39904        7.70481
H         11.33304      -10.52473        6.35502
H         14.58778      -11.73474       -0.04833
H         17.48993      -12.43364        5.55230
