91

C          2.16755       -1.01572       -4.99225
C          1.71766       -0.36919       -6.11307
S          3.04565        0.34560       -6.96590
C          4.17450       -0.20925       -5.81528
Cl         5.83471        0.16640       -6.00546
C          3.57007       -0.90918       -4.81535
C          4.03274       -1.53845       -3.61106
O          5.17523       -1.66310       -3.21570
C          2.72466       -1.97252       -2.93849
C          1.58989       -1.78345       -3.91609
C          0.34582       -2.31871       -3.87979
C         -0.60841       -2.09903       -4.92125
N         -1.37570       -1.92156       -5.76558
C         -0.07887       -3.19152       -2.84141
N         -0.40046       -3.90595       -1.98407
C          2.66613       -2.29788       -1.63201
C          3.81537       -2.36841       -0.78843
S          4.64002       -3.86109       -0.62101
C          5.83217       -3.20140        0.43665
C          5.57315       -1.86119        0.68095
C          4.39124       -1.39881        0.01575
C          3.83630       -0.08018        0.13861
N          3.33693        0.96312        0.21884
C          6.38955       -1.03805        1.52598
N          7.04439       -0.34807        2.18968
C          6.81308       -4.08036        0.95666
N          7.99087       -4.48701        0.33055
C          8.50786       -4.03747       -0.94397
C          8.05881       -4.91831       -2.09761
C          8.65189       -5.48818        1.07707
O          9.65980       -6.11523        0.82504
C          7.79105       -5.62755        2.26158
C          6.67981       -4.72930        2.11586
C          5.79962       -4.90668        3.28238
O          4.74827       -4.33702        3.48876
N          6.48361       -5.87810        4.04276
C          5.97768       -6.37946        5.30689
C          6.43470       -5.53750        6.48781
C          7.65210       -6.29494        3.40574
C          8.51789       -7.30383        3.93354
C          8.79252       -8.44837        3.28863
C          9.67454       -9.45125        3.82352
C         10.41501      -10.28656        3.06362
C         11.24903      -11.09898        3.95734
C         10.82061      -10.75943        5.31811
C          9.89985       -9.78926        5.22073
C         11.23413      -11.31512        6.54514
N         11.58765      -11.76039        7.55990
C         12.27686      -11.88016        3.56895
C         13.26286      -12.49207        4.46145
C         14.27571      -12.97831        3.71655
C         13.94609      -12.73678        2.31411
C         12.73956      -12.16034        2.21095
C         12.07460      -11.96597        0.97873
N         11.54927      -11.83201       -0.04710
C         15.48101      -13.53986        4.28358
C         16.29640      -14.44399        3.71628
C         17.70426      -14.57044        4.28127
O         18.10540      -14.26623        5.38680
C         18.43699      -15.05011        3.13839
C         19.74412      -15.32655        2.87894
S         19.97605      -15.80874        1.25777
C         18.28570      -15.68662        0.89763
C         17.59920      -15.30983        2.01890
C         16.22430      -15.14820        2.40754
C         15.14608      -15.73163        1.83462
C         15.20510      -16.30722        0.53659
N         15.25123      -16.73153       -0.54215
C         13.89358      -15.84434        2.50654
N         12.87467      -15.93889        3.05242
Cl        21.08328      -15.25119        3.94287
H          0.71874       -0.24617       -6.51037
H          1.72384       -2.48708       -1.12817
H          9.60337       -4.07424       -0.89001
H          8.22706       -2.99294       -1.11069
H          8.30127       -5.97035       -1.91428
H          8.55140       -4.60975       -3.02470
H          6.97958       -4.84914       -2.25145
H          6.28675       -7.42142        5.44422
H          4.88291       -6.36956        5.26439
H          7.52644       -5.52581        6.56821
H          6.02964       -5.94271        7.42088
H          6.09456       -4.50150        6.39015
H          8.95951       -7.08729        4.90323
H          8.36432       -8.64774        2.30729
H         10.44461      -10.26229        1.98593
H          9.37637       -9.31988        6.04029
H         13.23259      -12.52084        5.53809
H         14.54794      -13.05326        1.47686
H         15.78263      -13.08933        5.23450
H         17.93661      -15.92191       -0.09957
