95

C         -2.36184        5.98607        0.05569
C         -2.12432        6.15335       -1.26451
C         -3.17272        6.41184       -2.19368
N         -4.03283        6.59821       -2.95217
C         -0.83063        6.21033       -1.85377
N          0.15341        6.25638       -2.46589
C         -3.66188        6.29005        0.68945
C         -3.41689        6.87088        1.94261
C         -4.43782        7.34334        2.74933
C         -5.76317        7.12703        2.32676
C         -6.01549        6.42054        1.11401
C         -4.95792        6.02852        0.28701
C         -7.32792        6.09167        0.75675
C         -8.39629        6.47413        1.56256
C         -8.16442        7.21711        2.71678
C         -6.85896        7.54371        3.09686
C         -1.98146        6.71020        2.28147
O         -1.41153        7.09159        3.28345
C         -1.42489        5.85451        1.16584
C         -0.57579        4.86736        1.50219
C         -0.38497        3.61594        0.75959
C          0.58664        3.45163       -0.21871
C          1.63383        4.35221       -0.70582
O          1.85408        5.44007       -0.20620
N          2.27741        3.70132       -1.73627
C          1.81281        2.41644       -1.87489
O          2.15465        1.49188       -2.58799
C          0.73563        2.25529       -0.91765
C         -0.02057        1.12684       -0.67469
C         -0.95645        1.27615        0.32678
C         -1.14654        2.46424        1.01024
C         -2.21368        2.21567        1.96482
O         -2.70350        3.02582        2.72309
O         -2.56995        0.91024        1.82143
C         -1.85946        0.28106        0.85385
O         -1.94238       -0.87201        0.48865
C          3.29350        4.28016       -2.46146
C          3.95827        3.66981       -3.45137
C          5.03860        4.28869       -4.12309
S          5.39424        3.80498       -5.72508
C          6.75722        4.84629       -5.83733
C          6.93370        5.54479       -4.65282
C          5.94223        5.23193       -3.68049
C          8.00545        6.46173       -4.39702
N          8.86999        7.21243       -4.20732
C          7.48294        4.82382       -7.05955
C          8.13289        5.90452       -7.50552
C          8.87792        5.93499       -8.72837
C          9.09432        7.08181       -9.40120
C          9.94229        6.78840      -10.55184
C         10.22983        5.34819      -10.47560
C          9.60358        4.86576       -9.39098
C         11.02014        4.54644      -11.32900
N         11.67011        3.88357      -12.02892
C         10.35768        7.69689      -11.45518
C         11.22709        7.41060      -12.58972
C         11.43521        8.55624      -13.26375
C         10.72648        9.62685      -12.59062
C         10.07077        9.13724      -11.52629
C          9.25372        9.93190      -10.69102
N          8.58255       10.59581      -10.01596
C         12.26572        8.66057      -14.42659
C         12.05453        7.94569      -15.54114
C         12.92661        8.04043      -16.65696
S         12.28462        7.79539      -18.26291
C         13.80723        8.05220      -19.03006
C         14.74857        8.29179      -18.07556
C         14.27653        8.27954      -16.75320
C         15.32163        8.50527      -15.80530
C         16.53308        8.70593      -16.36651
S         16.43318        8.59971      -18.11442
O         17.02507        7.38004      -18.61341
O         16.56039        9.89521      -18.74104
H         -4.21246        7.80542        3.70637
H         -5.16549        5.49187       -0.63372
H         -7.52997        5.51579       -0.14459
H         -9.40883        6.19097        1.28647
H         -9.00369        7.52931        3.33306
H         -6.70746        8.11274        4.01158
H         -0.12311        4.87637        2.49635
H          0.13072        0.19660       -1.21287
H          3.52145        5.30631       -2.17512
H          3.69982        2.66533       -3.77298
H          5.92187        5.65570       -2.68258
H          7.46174        3.91315       -7.65578
H          8.10665        6.84861       -6.96677
H          8.69724        8.03745       -9.10169
H          9.63397        3.84562       -9.03581
H         11.66461        6.46397      -12.86004
H         10.72424       10.65161      -12.93405
H         13.07649        9.37781      -14.34505
H         11.18848        7.28991      -15.61553
H         13.91756        8.00347      -20.10438
H         15.16344        8.50470      -14.73448
H         17.46433        8.89374      -15.86161
