94

C         -0.66092       -0.59521        2.20300
N          0.10183       -0.03386        1.18352
C          1.36158       -0.55513        0.70528
C          2.54276        0.02909        1.45973
C         -0.48706        1.13389        0.66445
O         -0.10919        1.88758       -0.20783
C         -1.72802        1.22175        1.44753
C         -1.76355        0.13415        2.38128
C         -3.01479        0.25173        3.15412
O         -3.38230       -0.47479        4.05463
N         -3.64450        1.38764        2.57895
C         -4.91902        1.86147        3.09873
C         -5.87223        2.56038        2.13728
C         -2.83409        1.94566        1.58835
C         -3.14488        3.09184        0.80522
C         -3.24994        4.31461        1.33121
C         -3.66226        5.40871        0.53829
S         -3.24369        6.95799        1.07191
C         -4.04049        7.74577       -0.23449
C         -4.61703        6.80766       -1.07610
C         -4.40989        5.47074       -0.62214
C         -5.35875        7.13856       -2.26406
N         -5.95825        7.40202       -3.22014
C         -4.04977        9.16839       -0.32173
C         -3.45282        9.93796        0.60070
C         -3.48217       11.35154        0.55857
S         -3.48580       12.22129       -0.90316
C         -3.51512       13.73370       -0.09626
C         -3.46554       13.56426        1.27625
C         -3.44309       12.19515        1.64617
C         -3.41536       14.62577        2.23655
N         -3.38745       15.47665        3.02372
C         -3.54611       14.87789       -0.92755
C         -4.17212       16.00059       -0.55934
C         -4.15170       17.14475       -1.39349
S         -4.91630       18.57360       -0.84762
C         -4.46749       19.46103       -2.24975
C         -3.77261       18.65635       -3.13439
C         -3.58581       17.33721       -2.63769
C         -3.29801       19.06867       -4.41243
N         -2.89781       19.41428       -5.45063
C         -4.88474       20.81607       -2.31344
C         -4.15340       21.76423       -2.91598
C         -4.55398       23.13901       -3.00796
N         -4.19924       23.96809       -4.07678
C         -3.42748       23.60821       -5.25201
C         -4.29448       23.15966       -6.41756
C         -4.72712       25.26644       -3.92109
O         -4.64425       26.23068       -4.65337
C         -5.41974       25.18002       -2.62628
C         -5.26399       23.84652       -2.12072
C         -5.96616       23.77790       -0.82300
O         -6.06811       22.81506       -0.08954
N         -6.49838       25.07693       -0.68140
C         -7.35086       25.43338        0.43545
C         -6.77061       26.50063        1.34950
C         -6.14956       25.88694       -1.76319
C         -6.54345       27.25507       -1.90659
C         -5.66183       28.24671       -2.08801
H         -0.35986       -1.49346        2.72091
H          1.45583       -0.30215       -0.35733
H          1.34989       -1.64694        0.78911
H          2.55278        1.12225        1.39434
H          3.48207       -0.34764        1.04354
H          2.50287       -0.24247        2.51939
H         -4.70591        2.51325        3.95433
H         -5.44749        0.98901        3.50136
H         -5.55197        3.57469        1.90118
H         -6.85788        2.67673        2.59850
H         -5.98718        2.00412        1.20273
H         -3.26777        2.91743       -0.26037
H         -3.06529        4.47684        2.39307
H         -4.81030        4.59554       -1.12182
H         -4.58498        9.61387       -1.15777
H         -2.93941        9.52455        1.46103
H         -3.40401       11.84092        2.67096
H         -3.05968       14.79239       -1.89614
H         -4.70507       16.07144        0.38601
H         -3.05637       16.56785       -3.18784
H         -5.82168       21.06565       -1.81989
H         -3.19415       21.52345       -3.36165
H         -2.69142       22.83900       -5.00292
H         -2.86138       24.49405       -5.56356
H         -4.88126       22.27222       -6.16149
H         -3.66556       22.91627       -7.28063
H         -4.99030       23.94920       -6.72005
H         -7.53512       24.53450        1.03685
H         -8.32120       25.75000        0.03806
H         -5.79577       26.19790        1.74391
H         -7.44457       26.67442        2.19493
H         -6.64329       27.45491        0.83218
H         -7.60711       27.47284       -1.87333
H         -4.59040       28.06370       -2.12164
H         -5.99191       29.27096       -2.22024
