83

C         -3.58654        2.44695        3.16871
C         -2.53331        1.78776        3.71396
C         -2.02733        2.06926        5.02054
N         -1.60615        2.29030        6.07402
C         -1.84656        0.72566        3.05186
N         -1.27378       -0.13257        2.52585
C         -4.41271        3.50506        3.84790
C         -5.53530        3.75482        3.05751
C         -6.52669        4.68097        3.36029
C         -6.40792        5.40098        4.56327
C         -5.29438        5.16004        5.38133
C         -4.27729        4.22591        5.03441
S         -5.36613        6.13405        6.81015
C         -6.82754        6.83785        6.33872
C         -7.28224        6.38754        5.12989
Br        -7.74130        8.10852        7.36763
C         -5.54852        2.90980        1.86207
O         -6.49635        2.81590        1.11118
C         -4.22624        2.19575        1.84313
C         -3.76349        1.57087        0.74592
C         -4.46314        1.46817       -0.53562
N         -5.20202        0.37107       -0.75457
C         -5.80380        0.29709       -1.95860
C         -5.66920        1.24869       -2.93848
C         -4.88559        2.33084       -2.60278
N         -4.26114        2.45671       -1.41234
C         -4.69133        3.40920       -3.56789
C         -3.94005        4.48802       -3.30519
C         -3.76241        5.57216       -4.23687
C         -3.77524        5.42173       -5.57206
C         -3.57227        6.46419       -6.52600
C         -3.32794        7.77864       -6.19605
S         -3.12106        8.76672       -7.56592
C         -3.35927        7.44846       -8.63994
C         -3.58202        6.27304       -7.94180
C         -3.30230        7.67363      -10.08029
N         -3.69068        8.87812      -10.53349
C         -3.64153        9.05488      -11.85976
C         -3.22494        8.08033      -12.73328
C         -2.85595        6.87427      -12.16915
N         -2.88708        6.65012      -10.83992
C         -2.40106        5.76031      -13.01637
C         -2.04202        4.57160      -12.50334
C         -1.60389        3.44726      -13.29473
C         -1.23268        2.23476      -12.85560
C         -1.13792        1.58546      -11.53748
C         -2.03051        1.65125      -10.51692
C         -1.84863        0.97214       -9.27981
N         -1.69700        0.44003       -8.25620
C         -3.27549        2.32929      -10.63055
N         -4.31459        2.85598      -10.69310
C         -0.03880        0.57552      -11.64648
C          0.26709        0.41074      -13.00165
C         -0.48200        1.37228      -13.82523
O         -0.43890        1.46565      -15.03420
C          1.17600       -0.52214      -13.48750
C          1.81760       -1.36181      -12.55010
C          1.54403       -1.17992      -11.18568
C          0.63535       -0.20027      -10.71066
S          2.43576       -2.29963      -10.21732
C          3.13240       -3.01761      -11.57579
C          2.75229       -2.43441      -12.75478
Br         4.30894       -4.47148      -11.47490
H         -7.36707        4.82927        2.68770
H         -3.44168        4.10939        5.71479
H         -8.19963        6.72336        4.66035
H         -2.78592        1.10976        0.70323
H         -6.40931       -0.58885       -2.12382
H         -6.14925        1.14666       -3.90309
H         -5.19089        3.29710       -4.52571
H         -3.45562        4.59479       -2.33436
H         -3.58413        6.54518       -3.78612
H         -3.95177        4.42692       -5.97868
H         -3.25389        8.22609       -5.21587
H         -3.75755        5.32499       -8.43886
H         -3.95377       10.03361      -12.21113
H         -3.19385        8.27466      -13.79552
H         -2.36879        5.95301      -14.08491
H         -2.04380        4.45610      -11.42484
H         -1.50072        3.65927      -14.36162
H          1.36859       -0.60667      -14.55369
H          0.48631       -0.10781       -9.64111
H          3.10301       -2.75643      -13.72802
