98

C         -7.64019        6.23340       -6.68043
C         -6.45871        5.70173       -7.07178
C         -5.81631        6.06186       -8.29351
N         -5.28802        6.36948       -9.27877
C         -5.84657        4.62658       -6.36290
N         -5.35916        3.72445       -5.82362
C         -8.54961        7.03246       -7.54148
C         -9.86781        6.79307       -7.11853
C        -10.97497        7.35055       -7.73299
C        -10.75954        8.21018       -8.81699
C         -9.42978        8.49662       -9.24364
C         -8.32916        7.90680       -8.59346
C         -9.23192        9.37515      -10.31765
C        -10.31794        9.96273      -10.96696
C        -11.61611        9.68123      -10.55091
C        -11.83692        8.81124       -9.48230
C         -9.87279        5.97503       -5.88994
O        -10.84361        5.57779       -5.28343
C         -8.42843        5.86042       -5.50107
C         -8.17699        5.82404       -4.18286
C         -6.96874        6.28735       -3.59883
S         -6.83551        7.94327       -3.17171
C         -5.27310        7.74884       -2.44707
C         -4.87354        6.42105       -2.56027
C         -5.85050        5.59529       -3.19635
C         -3.64266        5.88759       -2.07230
N         -2.63538        5.49561       -1.64416
C         -4.68186        8.92376       -1.87105
C         -3.46764        8.93668       -1.29722
C         -2.83947       10.09771       -0.74529
S         -3.21264       11.66697       -1.36589
C         -1.97829       12.39826       -0.46843
C         -1.28802       11.48378        0.30131
N         -0.10418       11.90098        0.98590
O         -0.22959       12.84332        1.77936
O          0.95619       11.35894        0.65119
C         -1.86271       10.16458        0.26104
N         -1.47908        9.05121        0.99432
C         -1.21656        8.92368        2.34663
S         -1.60223       10.09677        3.52923
C         -1.29723        9.05826        4.88092
C         -0.76534        7.85678        4.42521
C         -0.65725        7.80943        2.97299
C         -0.04070        6.62240        2.26046
C          0.53818        5.56592        3.21549
N          0.60445        4.27575        2.44215
O         -0.41024        3.56903        2.42712
O          1.65842        4.03969        1.84250
C         -0.31389        5.38961        4.46897
N          0.25356        4.30577        5.34507
O         -0.55118        3.67037        6.03416
O          1.47946        4.14417        5.33806
C         -0.33275        6.68720        5.28768
C         -1.45449        9.53542        6.23568
C         -2.49999       10.25363        6.69155
C         -2.59254       11.12982        7.89096
C         -2.15155       10.88718        9.15109
C         -2.39096       11.77003       10.24259
N         -2.58051       12.49894       11.13189
C         -1.46901        9.67945        9.47177
N         -0.89601        8.68803        9.71228
C         -3.40806       12.30651        7.45826
C         -4.02843       11.97715        6.24528
C         -3.69227       10.60562        5.85891
O         -4.30822        9.90744        5.08178
C         -4.72593       12.87644        5.46170
C         -4.80641       14.19540        5.90725
C         -4.25210       14.55513        7.17015
C         -3.55240       13.59992        7.94050
C         -4.37593       15.88262        7.60582
C         -4.97825       16.84726        6.79556
C         -5.46812       16.50076        5.53927
C         -5.39550       15.17872        5.10262
H        -11.97232        7.13784       -7.35805
H         -7.32545        8.16295       -8.91949
H         -8.22678        9.61000      -10.66343
H        -10.14832       10.64039      -11.79998
H        -12.46026       10.14107      -11.05908
H        -12.86059        8.60869       -9.17385
H         -9.00010        5.64764       -3.48884
H         -5.72826        4.52676       -3.33336
H         -5.27131        9.84016       -1.91153
H         -2.86206        8.04595       -1.24520
H         -1.78732       13.45758       -0.57881
H         -1.78636        8.16032        0.60267
H          0.77213        6.97994        1.61287
H         -0.80138        6.18505        1.60242
H          1.57478        5.82416        3.47591
H         -1.33996        5.08517        4.22274
H          0.65944        6.90326        5.70766
H         -1.01908        6.57662        6.13772
H         -0.58455        9.38222        6.87140
H         -5.12979       12.56363        4.50368
H         -3.08439       13.92430        8.86584
H         -3.98906       16.18456        8.57753
H         -5.05171       17.87545        7.14070
H         -5.90664       17.25993        4.89677
H         -5.78087       14.92880        4.11564
