102

C         -0.10084        0.25001       -2.59407
C          0.81179       -0.15534       -3.50536
C          0.64022       -1.33997       -4.27414
N          0.48633       -2.30379       -4.90385
C          2.04033        0.54254       -3.69683
N          3.02947        1.13027       -3.84188
C         -1.34685       -0.45928       -2.19925
C         -1.66517       -0.08275       -0.88640
C         -2.77846       -0.54748       -0.20805
C         -3.68742       -1.34369       -0.91336
C         -3.43705       -1.66914       -2.27890
C         -2.24389       -1.24745       -2.90524
C         -4.41589       -2.37523       -2.99493
C         -5.61146       -2.76094       -2.38451
C         -5.83605       -2.47151       -1.04183
C         -4.87724       -1.77281       -0.30818
C         -0.77209        1.00156       -0.43949
O         -0.71151        1.46899        0.67734
C          0.01438        1.38659       -1.66360
C          0.40473        2.63707       -1.96878
C          0.01489        3.75684       -1.18671
S         -1.45099        4.55595       -1.58056
C         -1.33197        5.65318       -0.25452
C         -0.15349        5.42365        0.44361
C          0.63521        4.36882       -0.12031
C          0.22605        6.11969        1.63821
N          0.51998        6.69441        2.60347
C         -2.43153        6.54426       -0.06017
C         -2.31061        7.75570        0.50180
C         -3.44445        8.59097        0.78374
N         -3.85559        8.87109        2.08778
C         -3.25716        8.34135        3.29910
C         -3.85819        7.00245        3.69718
C         -5.00857        9.68287        2.10741
O         -5.65512       10.09936        3.04618
C         -5.26642        9.91298        0.67614
C         -4.26172        9.20687       -0.07552
C         -4.51151        9.45608       -1.50533
O         -3.86081        9.04701       -2.44512
N         -5.64467       10.29928       -1.48079
C         -6.17027       10.90901       -2.68623
C         -7.18697       10.02837       -3.39218
C         -6.07963       10.54037       -0.17461
C         -7.18222       11.39085        0.17431
C         -8.46612       11.16618       -0.14827
C         -9.50283       12.15515        0.26320
O         -9.30112       13.48850       -0.27715
C        -10.48518       13.37729       -1.09745
C        -10.88333       12.04416       -0.44567
C        -12.08198       12.10956        0.45895
C        -13.34671       11.93779        0.03762
C        -14.62997       11.98736        0.79323
C        -14.79622       11.86579        2.13613
C        -16.07484       11.84263        2.75944
N        -17.11544       11.82176        3.27960
C        -13.71207       11.69319        3.04381
N        -12.83553       11.54807        3.78971
C        -15.72889       12.03920       -0.22618
C        -15.16343       11.85318       -1.49345
C        -13.70389       11.75952       -1.41218
O        -12.96349       11.60957       -2.36310
C        -15.89755       11.80481       -2.66927
C        -17.28221       11.96103       -2.59497
C        -17.89787       12.18405       -1.33346
C        -17.10782       12.22860       -0.15716
C        -19.29310       12.35327       -1.29087
C        -20.06197       12.29446       -2.45717
C        -19.45089       12.06868       -3.68671
C        -18.06824       11.90589       -3.75529
H         -2.96849       -0.22750        0.81275
H         -2.08212       -1.48813       -3.95250
H         -4.26945       -2.61172       -4.04725
H         -6.37097       -3.28433       -2.96051
H         -6.76592       -2.77610       -0.56758
H         -5.08132       -1.54385        0.73609
H          0.83018        2.87256       -2.94014
H          1.58568        4.03626        0.28224
H         -3.41700        6.20245       -0.37667
H         -1.35342        8.15603        0.82289
H         -3.42571        9.06093        4.10808
H         -2.17402        8.25259        3.16734
H         -4.93400        7.09383        3.87911
H         -3.38670        6.63215        4.61285
H         -3.71546        6.25149        2.91364
H         -5.33075       11.08538       -3.36973
H         -6.59876       11.88908       -2.45192
H         -6.73960        9.07722       -3.69707
H         -7.56605       10.53227       -4.28671
H         -8.03937        9.79914       -2.74867
H         -6.92336       12.27073        0.76315
H         -8.77282       10.28014       -0.69213
H         -9.56643       12.20244        1.35824
H        -10.22757       13.32029       -2.15980
H        -11.15790       14.22521       -0.93494
H        -10.93131       11.20317       -1.14653
H        -11.84467       12.33710        1.49064
H        -15.39063       11.65338       -3.61844
H        -17.61620       12.41967        0.78221
H        -19.80105       12.52895       -0.34407
H        -21.14091       12.42297       -2.40571
H        -20.04878       12.01920       -4.59347
H        -17.60851       11.73246       -4.72676
