89

C          1.24317        1.46405       -5.46832
S          1.52148        3.07928       -5.03460
C          1.82333        2.67646       -3.38237
C          1.71973        1.30199       -3.16503
C          1.37281        0.62758       -4.38791
S          1.15755       -1.08554       -4.50677
O          2.39320       -1.54822       -5.10147
O         -0.13203       -1.24162       -5.14217
C          1.06416       -1.60317       -2.80899
C          2.12609       -0.91509       -1.96409
C          1.88961        0.59480       -1.84187
C          2.16624        3.71504       -2.43732
S          1.61312        5.33629       -2.57509
C          2.59276        5.72601       -1.21294
N          3.19365        4.67263       -0.69093
N          2.93498        3.50991       -1.38825
C          2.68207        7.07908       -0.79726
C          3.43604        7.42021        0.25851
C          3.64512        8.77122        0.70005
N          3.96387        9.10964        2.01996
C          4.10374        8.20986        3.14880
C          2.80230        7.97244        3.89807
C          4.18159       10.49677        2.16060
O          4.49203       11.14240        3.14272
C          3.96343       10.99762        0.79647
C          3.65859        9.87908       -0.04967
C          3.49296       10.39488       -1.42378
O          3.23493        9.75398       -2.43295
N          3.69189       11.77742       -1.27154
C          3.61439       12.69871       -2.39259
C          4.94502       12.85387       -3.11416
C          3.96453       12.10379        0.05258
C          4.23751       13.43529        0.48458
C          3.53657       14.07234        1.43477
C          3.85787       15.42994        1.87916
C          3.55738       15.79984        3.19073
C          3.84144       17.10211        3.62335
N          3.45137       17.43187        4.97779
O          2.23864       17.38912        5.23239
O          4.35247       17.66614        5.79087
C          4.41800       18.05793        2.77732
C          4.69122       17.67755        1.45813
C          4.41483       16.38305        1.01707
C          4.67028       19.45357        3.13061
C          5.80192       19.90585        3.69675
C          6.02745       21.30292        3.93154
S          4.83277       22.48880        3.50903
C          5.76610       23.77866        4.07271
C          6.99366       23.37942        4.54895
C          7.13737       21.95100        4.46158
S          8.60604       21.16043        4.94604
O          9.24625       20.80209        3.69654
O          8.20262       20.17796        5.92846
C          9.55227       22.44016        5.75111
C          9.43562       23.77209        5.02401
C          8.01453       24.32229        5.09822
H          0.99730        1.19786       -6.48813
H          1.20185       -2.68876       -2.80392
H          0.05678       -1.37796       -2.44472
H          3.11897       -1.09640       -2.39429
H          2.12786       -1.35581       -0.96036
H          2.73629        1.01622       -1.29042
H          0.98959        0.77116       -1.23902
H          2.15823        7.82807       -1.38406
H          3.95961        6.64162        0.80723
H          4.83241        8.65179        3.83825
H          4.52039        7.25406        2.81983
H          2.35906        8.90985        4.24855
H          2.98759        7.33784        4.77194
H          2.06822        7.46713        3.26279
H          3.25136       13.67343       -2.04861
H          2.87406       12.31315       -3.10336
H          5.72102       13.23330       -2.44218
H          4.84482       13.55671       -3.94808
H          5.29029       11.89650       -3.51813
H          5.07957       13.90694       -0.01138
H          2.69971       13.58804        1.93602
H          3.11186       15.08415        3.88040
H          5.10180       18.38299        0.73636
H          4.63857       16.14489       -0.02011
H          3.86553       20.12281        2.84021
H          6.58856       19.20989        3.98580
H          5.36387       24.77990        4.01698
H         10.59366       22.10420        5.77643
H          9.19146       22.52215        6.78172
H          9.73593       23.65514        3.97540
H         10.11866       24.49821        5.47850
H          7.96929       25.26886        4.54612
H          7.75396       24.54374        6.14052
