108

C         -6.98126        2.52525       -1.62828
C         -6.29699        3.19998       -2.63474
F         -6.35809        4.53801       -2.68777
C         -5.54581        2.49888       -3.56629
F         -4.85044        3.15594       -4.50506
C         -5.50431        1.10858       -3.53926
C         -6.21186        0.40154       -2.55577
C         -6.92638        1.12330       -1.55299
C         -7.53220        0.43115       -0.48392
C         -7.43995       -0.95753       -0.42179
C         -6.81923       -1.64413       -1.47926
C         -6.20001       -0.99999       -2.53557
C         -6.80066       -3.09739       -1.21254
O         -6.69181       -3.98242       -2.03343
C         -7.04940       -3.19954        0.26139
C         -7.79081       -1.96171        0.61286
C         -8.78301       -1.82999        1.53667
C         -9.20402       -2.93556        2.33193
N         -9.57061       -3.82908        2.96164
C         -9.52779       -0.62214        1.71452
N        -10.12721        0.35765        1.85522
C         -6.42687       -4.09253        1.05605
C         -5.65494       -5.32777        0.70977
C         -4.25491       -5.42727        0.45605
O         -3.57684       -4.22367        0.45664
C         -2.24850       -4.20218       -0.06879
C         -3.65522       -6.71959        0.28503
O         -2.28078       -6.81861        0.21381
C         -1.73143       -7.50983       -0.90805
C         -4.43911       -7.89439        0.39139
C         -5.80655       -7.77166        0.64446
C         -6.40064       -6.51259        0.79920
C         -3.89024       -9.25388        0.20961
C         -3.33555      -10.07441        1.11588
C         -2.63549      -11.28180        0.73311
C         -1.84395      -11.76464        1.69989
C         -1.89784      -11.00105        2.93680
S         -3.21596       -9.81730        2.83832
C         -0.97232      -11.03414        3.91770
C          0.34169      -11.65044        3.79570
C          1.27877      -10.99661        4.50185
C          0.73641       -9.87579        5.24495
S         -0.99779      -10.06143        5.38845
C          1.47579       -8.81782        5.62058
C          1.05146       -7.59010        6.32434
C         -0.09859       -6.81785        6.07546
O         -0.84450       -6.85435        4.93137
C         -0.31108       -7.21222        3.66609
C         -0.55916       -5.93503        7.09237
O         -1.77091       -5.26702        7.08435
C         -2.72903       -5.56235        6.07201
C          0.24917       -5.66532        8.23683
C          1.53887       -6.19347        8.26850
C          1.90454       -7.19126        7.36807
C         -0.20627       -4.77084        9.33170
C          0.11561       -4.69453       10.63582
C         -0.37597       -3.47064       11.35899
O         -1.19569       -2.65470       10.99489
C          0.44162       -3.36268       12.56854
C          0.36707       -2.31201       13.46733
C          1.34463       -2.21877       14.45165
C          2.39032       -3.18809       14.50913
C          3.42451       -2.97854       15.44338
C          3.41131       -1.86076       16.28128
C          2.35807       -0.95870       16.24237
C          1.32034       -1.13623       15.34200
F          2.34393        0.10896       17.05489
F          4.43784       -1.65188       17.11723
C          2.37435       -4.29995       13.61725
C          1.38361       -4.39841       12.64145
C          1.02586       -5.39227       11.56596
C          1.25995       -6.72310       11.64629
C          0.54723       -7.67735       10.85950
N         -0.02992       -8.49432       10.27358
C          2.17348       -7.28731       12.58071
N          2.95148       -7.73899       13.31742
H         -7.54586        3.11118       -0.90614
H         -4.90139        0.59229       -4.28086
H         -8.01057        1.00694        0.30312
H         -5.67385       -1.58316       -3.28721
H         -6.50425       -3.97331        2.13555
H         -1.90881       -3.16299       -0.10297
H         -2.22062       -4.58686       -1.09311
H         -1.54249       -4.72235        0.58575
H         -1.02270       -6.84080       -1.40725
H         -2.46729       -7.82972       -1.65120
H         -1.15947       -8.37102       -0.54574
H         -6.42678       -8.65890        0.75153
H         -7.46270       -6.47021        1.03311
H         -3.87027       -9.54902       -0.83855
H         -2.69277      -11.70433       -0.26038
H         -1.20805      -12.62839        1.56808
H          0.57302      -12.45291        3.11175
H          2.33569      -11.22073        4.47159
H          2.54551       -8.85000        5.42037
H         -0.75457       -6.55295        2.91332
H         -0.64885       -8.21034        3.39981
H          0.77521       -7.14202        3.58987
H         -2.44940       -5.07142        5.13299
H         -3.69159       -5.14205        6.37731
H         -2.89181       -6.63850        5.94433
H          2.25337       -5.89467        9.02708
H          2.86127       -7.68718        7.51826
H         -0.90830       -4.02040        8.95714
H         -0.41044       -1.56114       13.35382
H          4.27006       -3.65891       15.51282
H          0.51384       -0.40796       15.32384
H          3.16864       -5.03925       13.69812
