110

C          5.28787        4.77508        6.05421
C          5.24103        6.12763        5.84775
S          6.49024        6.60998        4.74500
C          7.06004        5.01355        4.58010
Cl         8.42164        4.68313        3.59472
C          6.33417        4.14631        5.33606
C          6.42677        2.74296        5.59597
O          7.14400        1.92692        5.05442
C          5.38478        2.54394        6.69755
C          4.56582        3.79451        6.82964
C          3.36327        3.96304        7.43618
C          2.69295        5.20633        7.43795
N          2.14589        6.23376        7.44543
C          2.65180        2.88388        8.04864
N          2.07103        2.00139        8.52918
C          5.36287        1.44485        7.47067
C          6.25643        0.30603        7.39856
C          7.15589       -0.03771        8.35800
N          7.31921        0.62822        9.63043
O          6.33378        1.17565       10.14304
O          8.44435        0.58012       10.14642
C          7.94345       -1.17735        7.98530
C          7.51300       -1.60217        6.79265
C          6.41824       -0.74419        6.32871
C          5.70589       -0.91634        5.18447
C          4.63324       -0.02770        4.71824
C          4.16398       -0.48725        3.55174
C          4.87228       -1.69897        3.22908
N          4.55878       -2.48819        2.06028
O          3.41151       -2.37966        1.60630
O          5.44998       -3.18511        1.55510
C          5.80993       -2.00849        4.15386
C          6.59654       -3.22288        4.16622
C          7.93605       -3.27859        4.08734
C          8.65914       -4.50174        4.30270
N          9.58283       -5.04651        3.41027
C          9.90531       -4.55704        2.08428
C         11.37847       -4.19961        1.92270
C         10.08330       -6.28108        3.87972
O         10.83954       -7.07229        3.35349
C          9.43766       -6.41473        5.19409
C          8.57776       -5.28468        5.38644
C          7.94592       -5.42776        6.71442
O          7.17827       -4.65551        7.25084
N          8.48846       -6.63617        7.19680
C          8.19625       -7.12670        8.53249
C          7.42054       -8.43441        8.57017
C          9.36662       -7.19832        6.26978
C         10.08001       -8.41834        6.48473
C         10.00726       -9.45521        5.63799
C         10.69577      -10.69528        5.85059
C         10.46912      -11.52098        6.89386
C         11.29991      -12.71559        6.72593
C         12.08280      -12.47919        5.49847
C         11.70468      -11.29272        4.99573
C         13.07276      -13.29404        4.90289
N         13.88517      -13.97306        4.42507
C         11.27976      -13.80366        7.52506
C         12.05932      -15.01642        7.30454
C         11.75310      -15.92122        8.25576
C         10.74011      -15.33159        9.11786
C         10.47858      -14.07181        8.72658
C          9.60964      -13.20387        9.42610
N          8.91014      -12.48997       10.01617
C         12.29672      -17.25593        8.32651
C         13.51212      -17.58609        7.86495
C         14.05308      -18.91610        7.95809
C         14.54183      -19.64861        6.94639
C         15.44249      -20.80870        7.34541
O         15.51339      -21.37603        8.41770
C         16.23805      -20.98920        6.16182
C         17.30039      -21.77258        5.83627
S         17.84110      -21.46824        4.24766
C         16.61356      -20.27469        3.97846
C         15.82848      -20.14767        5.09245
C         14.64954      -19.40911        5.47851
C         13.74548      -18.84491        4.64379
C         13.99602      -18.71170        3.24721
N         14.21287      -18.60720        2.11207
C         12.43418      -18.47464        5.05799
N         11.33852      -18.21745        5.34082
Cl        18.09923      -22.94421        6.79684
H          4.58990        6.88625        6.26131
H          4.68214        1.37241        8.31547
H          8.73631       -1.61658        8.57209
H          7.94107       -2.45513        6.31715
H          4.26255        0.86737        5.17298
H          3.39013       -0.04028        2.94538
H          6.02002       -4.14480        4.25625
H          8.52579       -2.37080        3.97621
H          9.28686       -3.69012        1.83299
H          9.66071       -5.35831        1.37819
H         11.65982       -3.36620        2.57404
H         11.58400       -3.91019        0.88681
H         12.03120       -5.04485        2.16388
H          7.60655       -6.36723        9.06004
H          9.14159       -7.22514        9.07664
H          6.48441       -8.36079        8.00818
H          7.17696       -8.69290        9.60667
H          8.00065       -9.26242        8.15498
H         10.69900       -8.47090        7.37618
H          9.40509       -9.40297        4.73160
H          9.75203      -11.32546        7.67349
H         12.08704      -10.81578        4.10352
H         12.75297      -15.19534        6.50328
H         10.31147      -15.84295        9.96812
H         11.65067      -18.01392        8.76674
H         14.17055      -16.83072        7.43811
H         14.18596      -19.26640        8.98477
H         16.57014      -19.77368        3.02024
