110

C          0.71858        6.32382        3.87306
C         -0.41950        7.05064        3.79331
C         -1.04605        7.64418        4.93450
N         -1.56041        8.13233        5.85330
C         -1.04485        7.37933        2.55981
N         -1.58949        7.67397        1.57767
C          1.58630        6.33697        5.10199
C          2.90651        6.20320        4.67820
C          4.01014        6.37810        5.49545
C          3.78630        6.60042        6.85226
C          2.45686        6.59820        7.35886
C          1.35819        6.47987        6.46860
C          2.27767        6.71791        8.74823
C          3.37370        6.86675        9.60486
C          4.66516        6.92273        9.08884
C          4.87070        6.79045        7.71805
C          2.95738        5.79063        3.27736
O          3.96705        5.54282        2.65763
C          1.52773        5.70316        2.79756
C          1.40746        5.04843        1.61438
C          0.33430        4.72603        0.64267
C         -1.02021        4.60831        0.95521
C         -1.68582        4.36357        2.23550
O         -1.16383        4.12500        3.30612
O         -3.03205        4.43959        2.02049
C         -3.33916        4.69531        0.63849
C         -2.01152        4.68157       -0.00945
C         -1.69716        4.77908       -1.35228
C         -0.35556        4.66107       -1.72124
C          0.66226        4.56756       -0.74742
C          2.00294        4.12564       -1.20918
N          2.36976        2.76628       -1.22156
C          1.48914        1.62117       -1.12268
C          1.06900        1.11511       -2.49857
C          3.73112        2.58321       -1.54681
O          4.36764        1.55587       -1.66049
C          4.20101        3.95733       -1.73433
C          3.06614        4.84661       -1.59519
C          3.55634        6.20956       -1.86259
O          2.89473        7.22687       -1.90673
N          4.94371        6.01543       -2.06036
C          5.85827        7.13155       -2.18930
C          6.25715        7.66560       -0.82374
C          5.30973        4.66990       -1.93671
C          6.67533        4.21399       -2.06737
C          7.28836        3.26122       -1.33496
C          8.71219        2.85735       -1.51921
C          9.26751        2.66560       -2.80289
C          8.65596        2.68265       -4.14752
O          7.49247        2.84291       -4.45368
O          9.65908        2.48893       -5.05950
C         10.92219        2.24961       -4.43081
C         10.61412        2.39818       -2.99798
C         11.48824        2.31748       -1.93952
C         10.97253        2.47170       -0.65599
C          9.59037        2.64988       -0.40172
C          9.14706        2.72100        1.03168
C          9.61718        2.10088        2.14085
C          9.20101        2.24937        3.57457
C          8.19827        2.99891        4.10322
C          7.71514        2.83467        5.43197
N          7.30385        2.68800        6.50979
C          7.62185        4.08846        3.39816
N          7.25208        5.04978        2.86763
C         10.19614        1.49672        4.40883
C         11.12260        0.89253        3.56027
C         10.71858        1.05673        2.16087
O         11.19371        0.41064        1.25059
C         12.33038        0.35682        3.99748
C         12.64736        0.44792        5.36026
C         11.69762        0.99947        6.25945
C         10.47382        1.50612        5.77431
C         12.01831        1.09394        7.62295
C         13.26957        0.69534        8.09325
C         14.21410        0.18623        7.20767
C         13.90233        0.05142        5.85249
H          5.00931        6.31973        5.07466
H          0.35243        6.49429        6.87920
H          1.27968        6.68815        9.18109
H          3.21891        6.94250       10.67852
H          5.51562        7.05520        9.75278
H          5.88697        6.82710        7.33129
H          2.36122        4.69376        1.21844
H         -3.82893        5.67111        0.56394
H         -3.99552        3.90217        0.27203
H         -2.47123        4.88879       -2.10602
H         -0.10160        4.62881       -2.78046
H          0.61441        1.85974       -0.51262
H          2.03652        0.81891       -0.61366
H          0.53083        1.88576       -3.05934
H          0.41826        0.24065       -2.40272
H          1.93904        0.82122       -3.09704
H          5.36368        7.92560       -2.76019
H          6.74427        6.83504       -2.75919
H          5.38804        8.08212       -0.30393
H          7.00856        8.45358       -0.92368
H          6.67089        6.87111       -0.19353
H          7.22793        4.71254       -2.86043
H          6.75009        2.76179       -0.53352
H         11.64345        2.99508       -4.77775
H         11.25877        1.23984       -4.68173
H         12.54665        2.12312       -2.08584
H         11.69001        2.43116        0.16014
H          8.32517        3.42129        1.12514
H         13.03777       -0.04745        3.27776
H          9.81408        1.97466        6.49569
H         11.30219        1.50442        8.33317
H         13.50979        0.79671        9.14905
H         15.19736       -0.10202        7.57194
H         14.66184       -0.34087        5.17909
