112

C          3.06824        4.20609        1.73226
C          2.65664        4.97999        2.75986
C          3.42723        6.08946        3.21227
N          4.06962        6.99064        3.55865
C          1.48607        4.66039        3.50840
N          0.55266        4.38330        4.14213
C          4.35944        4.27621        1.02009
C          4.70643        2.96481        0.65321
C          5.82481        2.66843       -0.09873
C          6.55600        3.74220       -0.61971
C          6.16442        5.08722       -0.33859
C          5.08400        5.34756        0.52510
C          6.83059        6.13703       -0.98704
C          7.86081        5.87536       -1.89205
C          8.26561        4.56511       -2.13226
C          7.62487        3.50519       -1.49148
C          3.56664        2.04954        0.91039
O          3.53187        0.84941        0.75029
C          2.43699        2.97871        1.24453
C          1.26745        2.77007        0.60974
C          0.35307        3.81077        0.25562
S          0.91654        5.37822       -0.28423
C         -1.01230        3.79737        0.10026
C         -2.08977        2.84719        0.22849
O         -1.98052        1.66508        0.50082
N         -3.23984        3.57140       -0.05667
C         -4.57683        3.01963       -0.03922
C         -5.27838        3.17007       -1.38199
C         -2.99669        4.89851       -0.35478
O         -3.79889        5.76622       -0.65351
C         -1.56868        5.03597       -0.26505
C         -0.66194        6.03952       -0.44853
C         -0.80777        7.41157       -0.75653
C         -1.88408        8.09617       -0.34801
C         -2.09010        9.48095       -0.61740
N         -2.16606       10.02383       -1.89790
C         -2.09823        9.29947       -3.15383
C         -3.45527        8.81691       -3.63883
C         -2.41010       11.40697       -1.84876
O         -2.53157       12.19692       -2.76279
C         -2.47107       11.68409       -0.39575
C         -2.25964       10.44260        0.29300
C         -2.31752       10.70854        1.74098
O         -2.15375        9.91344        2.64319
N         -2.60303       12.08852        1.79192
C         -2.77136       12.78314        3.05485
C         -1.46784       13.34852        3.59403
C         -2.66234       12.64585        0.51282
C         -2.95239       14.02837        0.26824
C         -2.51784       14.67652       -0.81933
C         -2.87583       16.01742       -1.06236
S         -2.93463       16.54612       -2.68985
C         -3.43064       18.09184       -2.11040
N         -3.46147       18.16254       -0.79350
N         -3.18306       16.95502       -0.18968
C         -3.72718       19.14960       -3.00688
C         -4.26268       18.91646       -4.21490
C         -4.63900       19.97463       -5.11518
C         -5.61332       19.90804       -6.03445
C         -6.03433       20.92321       -7.02199
C         -5.88105       22.27121       -6.92615
C         -6.40777       23.17563       -7.89159
N         -6.82822       23.90949       -8.68051
C         -5.23863       22.90981       -5.82183
N         -4.71612       23.42931       -4.93188
C         -6.84097       20.20196       -8.04913
C         -7.12110       18.91655       -7.57038
C         -6.43176       18.67142       -6.30448
O         -6.51689       17.64334       -5.66667
C         -7.89134       17.98235       -8.24489
C         -8.39534       18.33338       -9.49575
C         -8.09198       19.61306      -10.03956
C         -7.30924       20.53759       -9.31035
C         -8.58328       19.93611      -11.31047
C         -9.36401       19.02670      -12.02665
C         -9.66637       17.77983      -11.48547
C         -9.18268       17.43235      -10.22596
H          6.04546        1.63893       -0.36445
H          4.77079        6.37225        0.70964
H          6.53029        7.17039       -0.82312
H          8.34310        6.69617       -2.41726
H          9.06922        4.36406       -2.83617
H          7.94551        2.48839       -1.70906
H          1.06111        1.78472        0.18862
H         -5.14669        3.55044        0.73246
H         -4.52890        1.96219        0.23646
H         -5.40817        4.22143       -1.65929
H         -6.27340        2.71920       -1.34537
H         -4.70093        2.69032       -2.17835
H         -0.01253        7.91118       -1.30567
H         -2.66319        7.63750        0.25588
H         -1.41599        8.45189       -3.06610
H         -1.66689        9.96640       -3.90859
H         -3.93170        8.15844       -2.90561
H         -3.33941        8.25671       -4.57289
H         -4.12971        9.65767       -3.82837
H         -3.16789       12.06691        3.78371
H         -3.52219       13.57287        2.95311
H         -0.72386       12.55786        3.73534
H         -1.63804       13.83090        4.56240
H         -1.04416       14.09239        2.91224
H         -3.57912       14.55068        0.98690
H         -1.91323       14.18484       -1.57368
H         -3.57969       20.15747       -2.63087
H         -4.46011       17.89992       -4.54957
H         -4.02706       20.86316       -5.00063
H         -8.07062       17.00562       -7.80473
H         -7.08109       21.49390       -9.76976
H         -8.36569       20.90389      -11.75555
H         -9.73875       19.29572      -13.01099
H        -10.27758       17.07638      -12.04547
H         -9.42513       16.45165       -9.82076
