121

C          2.11158       -6.05657        2.02431
C          2.79435       -6.72093        1.00654
F          4.00968       -7.22714        1.25383
C          2.22378       -6.86769       -0.25005
F          2.87154       -7.53446       -1.21504
C          0.97502       -6.32655       -0.52298
C          0.28068       -5.63387        0.47677
C          0.83858       -5.51311        1.78602
C          0.10175       -4.87915        2.81688
C         -1.15665       -4.35764        2.54328
C         -1.64498       -4.46270        1.23170
C         -0.96622       -5.07964        0.19745
C         -3.01790       -3.96275        1.14471
O         -3.62446       -3.73149        0.12009
C         -3.46554       -3.81692        2.56795
C         -2.23328       -3.75879        3.38686
C         -2.09400       -3.17776        4.60586
C         -3.18787       -2.58509        5.28527
N         -4.08327       -2.12786        5.85926
C         -0.83284       -3.08307        5.26300
N          0.19963       -3.01474        5.79278
C         -4.73874       -4.02624        2.94372
C         -5.73329       -4.42167        2.00966
S         -5.97728       -6.10638        1.71751
C         -7.21676       -5.85383        0.52488
C         -7.45892       -4.50697        0.43129
C         -6.60483       -3.70732        1.23271
C         -6.88276       -2.30505        1.02764
O         -6.31438       -1.36783        1.57043
C         -8.04711       -2.20892        0.03116
C         -8.37306       -3.67048       -0.30725
O         -9.28525       -4.05373       -1.03147
C         -7.86306       -6.94874       -0.11681
C         -7.23554       -8.11594       -0.34045
C         -7.89236       -9.27146       -0.85626
N         -7.98320      -10.48747       -0.18089
C         -7.35498      -10.83626        1.08630
C         -8.23570      -10.63136        2.31029
C         -8.72484      -11.42786       -0.92056
O         -9.00851      -12.58591       -0.65794
C         -9.07656      -10.69160       -2.14510
C         -8.51347       -9.37962       -2.03977
C         -8.85819       -8.61199       -3.25572
O         -8.57653       -7.47282       -3.51776
N         -9.60741       -9.56368       -4.00410
C        -10.18695       -9.21868       -5.29155
C         -9.66791      -10.02338       -6.47556
C         -9.75169      -10.76061       -3.29545
C        -10.51786      -11.88538       -3.71994
C        -11.84546      -11.85848       -3.93610
C        -12.56915      -13.03686       -4.29667
S        -11.82899      -14.25243       -5.24515
C        -13.84627      -13.43830       -3.93119
C        -14.73105      -12.70970       -3.01556
O        -14.76911      -11.48869       -2.87422
C        -15.54993      -13.64649       -2.25755
C        -16.01875      -13.55796       -0.96291
N        -16.61965      -14.75370       -0.65721
C        -17.06403      -15.14068        0.67188
C        -18.48372      -14.69404        0.95283
C        -16.63022      -15.57225       -1.76287
C        -15.88915      -14.94832       -2.74824
C        -15.41185      -15.47687       -4.02403
O        -15.90562      -16.42997       -4.60972
C        -14.18402      -14.77143       -4.44509
C        -13.20039      -15.29455       -5.27364
C        -13.11179      -16.57197       -5.92892
C        -12.43205      -16.81512       -7.06237
C        -12.04655      -18.21784       -7.44967
O        -12.59670      -19.25240       -7.14845
C        -10.77156      -18.06937       -8.20368
C         -9.93973      -19.05849       -8.69476
C         -8.69560      -18.66833       -9.22184
C         -8.28562      -17.29933       -9.14813
C         -6.99931      -16.93361       -9.56468
C         -6.15656      -17.88482      -10.12466
C         -6.58035      -19.19768      -10.27706
C         -7.83260      -19.59946       -9.81731
F         -5.78162      -20.09554      -10.86955
F         -4.93498      -17.51587      -10.53252
C         -9.17656      -16.32000       -8.69135
C        -10.44381      -16.71019       -8.30451
C        -11.65529      -15.94899       -7.95156
C        -12.09698      -14.88786       -8.65910
C        -13.45232      -14.45909       -8.55439
N        -14.56806      -14.17360       -8.55737
C        -11.30520      -14.20816       -9.61652
N        -10.61802      -13.67387      -10.38967
H          2.59062       -5.97380        2.99668
H          0.55261       -6.46146       -1.51476
H          0.52470       -4.85649        3.81819
H         -1.42999       -5.15841       -0.78208
H         -5.02722       -4.07870        3.98829
H         -7.73390       -1.67749       -0.86960
H         -8.90844       -1.74160        0.51556
H         -8.90529       -6.81860       -0.40258
H         -6.17530       -8.24184       -0.12210
H         -6.40856      -10.29321        1.20443
H         -7.09717      -11.90480        1.04321
H         -8.44869       -9.57117        2.47862
H         -7.72363      -11.01558        3.20178
H         -9.18787      -11.16100        2.22406
H         -9.96777       -8.16361       -5.48937
H        -11.27488       -9.30065       -5.21911
H         -8.57563       -9.99036       -6.53989
H        -10.07214       -9.60743       -7.40587
H         -9.97445      -11.07219       -6.42817
H         -9.95582      -12.81603       -3.76488
H        -12.40558      -10.93718       -3.78361
H        -15.90147      -12.77653       -0.22337
H        -16.36712      -14.70080        1.39560
H        -16.97526      -16.23034        0.75217
H        -18.57602      -13.60591        0.87581
H        -18.78220      -14.99320        1.96197
H        -19.18226      -15.14223        0.23905
H        -17.07664      -16.56015       -1.72719
H        -13.55327      -17.41845       -5.40056
H        -10.25088      -20.09922       -8.66232
H         -6.64282      -15.91051       -9.47532
H         -8.12496      -20.63762       -9.94762
H         -8.87940      -15.27467       -8.66316
