111

C         -1.37348        1.39202       -3.95959
C         -0.59196        1.21794       -5.09809
F          0.18708        2.22400       -5.51803
C         -0.61320        0.01614       -5.79092
F          0.14100       -0.14425       -6.88661
C         -1.40698       -1.03881       -5.35248
C         -2.19620       -0.89447       -4.20289
C         -2.19089        0.34852       -3.49769
C         -2.98437        0.50968       -2.34398
C         -3.76243       -0.55091       -1.89543
C         -3.69211       -1.77729       -2.56354
C         -2.95712       -1.96724       -3.72141
C         -4.37232       -2.82232       -1.78009
O         -4.55000       -3.97253       -2.12643
C         -4.74398       -2.16851       -0.47044
C         -4.61829       -0.71586       -0.69187
C         -5.34266        0.26502       -0.10536
C         -5.46475        1.55777       -0.70417
N         -5.59264        2.57203       -1.24929
C         -6.11967        0.05024        1.06773
N         -6.70691       -0.12074        2.05447
C         -5.00303       -2.86978        0.64476
C         -5.05434       -4.34260        0.67995
C         -6.22089       -5.08223        0.45320
C         -6.22550       -6.52950        0.43927
N         -7.39405       -7.17800        0.24217
C         -8.52918       -6.44142        0.05798
C         -8.50914       -5.06585        0.04280
N         -7.35779       -4.38148        0.24632
C         -9.66977       -4.26951       -0.21247
N        -10.61408       -3.62721       -0.44580
C         -9.74046       -7.18893       -0.07808
N        -10.74112       -7.76944       -0.17143
C         -5.04893       -7.29069        0.63300
C         -3.85098       -6.56536        0.90392
C         -3.85425       -5.05807        0.91146
N         -2.64106       -4.52333        1.13522
S         -1.59802       -5.78970        1.35689
N         -2.63569       -7.07170        1.17857
C         -5.00753       -8.76122        0.63308
N         -4.73849       -9.57597       -0.48409
C         -4.42521       -9.18813       -1.84084
C         -2.92741       -9.13789       -2.10739
C         -4.73974      -10.94768       -0.14712
O         -4.53016      -11.92546       -0.83509
C         -5.04066      -10.92141        1.28371
C         -5.21007       -9.55425        1.69877
C         -5.49307       -9.58578        3.15263
O         -5.67907       -8.62910        3.87610
N         -5.43809      -10.96763        3.46430
C         -5.48906      -11.47335        4.82547
C         -6.89533      -11.80317        5.29646
C         -5.16388      -11.72922        2.33306
C         -5.00734      -13.15370        2.34403
C         -3.86103      -13.76582        2.00408
C         -3.74338      -15.18021        1.97375
S         -2.23810      -15.88608        1.57659
C         -2.80424      -17.51010        1.78153
C         -4.15747      -17.48982        2.07946
C         -4.68392      -16.16760        2.19548
C         -4.96843      -18.65166        2.29311
N         -5.66490      -19.55996        2.48716
C         -1.92224      -18.62574        1.59815
C         -0.59881      -18.52615        1.80768
C          0.33610      -19.60680        1.60364
C          1.64748      -19.47242        1.35420
C          2.51795      -20.68930        1.44331
O          2.17676      -21.85325        1.45178
C          3.89222      -20.17940        1.56917
C          5.03897      -20.95514        1.69075
C          6.26634      -20.28900        1.78371
C          6.29910      -18.86372        1.84575
C          7.53451      -18.21297        1.94558
C          8.71415      -18.95001        1.93961
C          8.67984      -20.33479        1.85498
C          7.46624      -21.00938        1.79072
F          9.82089      -21.03542        1.82252
F          9.88746      -18.30633        1.99713
C          5.10809      -18.11964        1.76205
C          3.90648      -18.77770        1.55160
C          2.53867      -18.31629        1.17106
C          2.30041      -17.19300        0.44689
C          1.13731      -17.04634       -0.36015
N          0.23817      -16.92417       -1.08878
C          3.25069      -16.14044        0.30213
N          4.02047      -15.27605        0.21254
H         -1.32719        2.34770       -3.44329
H         -1.38975       -1.96914       -5.91393
H         -2.94444        1.44912       -1.79693
H         -2.94419       -2.94170       -4.20226
H         -5.16721       -2.39789        1.60875
H         -4.91048       -8.24152       -2.09060
H         -4.84802       -9.95381       -2.50595
H         -2.46116       -8.30253       -1.57884
H         -2.73915       -9.01311       -3.17900
H         -2.42751      -10.05928       -1.78698
H         -5.06699      -10.70704        5.48425
H         -4.84698      -12.35754        4.91468
H         -7.53901      -10.91906        5.26389
H         -6.86743      -12.16461        6.33058
H         -7.35513      -12.58160        4.67938
H         -5.89214      -13.71583        2.62598
H         -2.98571      -13.16728        1.74137
H         -5.71747      -15.96096        2.43631
H         -2.35369      -19.56801        1.26282
H         -0.17061      -17.59394        2.16692
H         -0.07275      -20.61052        1.73971
H          4.96545      -22.03535        1.66134
H          7.60235      -17.12815        1.99692
H          7.47650      -22.09535        1.72131
H          5.16236      -17.03598        1.82222
