103

C         -6.49791       -1.26406       -0.26772
C         -6.11931       -1.98327        0.81656
C         -6.65215       -3.27061        1.11226
N         -7.07556       -4.32462        1.35156
C         -5.10076       -1.54164        1.71189
N         -4.27704       -1.17176        2.43958
C         -7.47617       -1.69154       -1.31868
C         -7.28100       -0.89390       -2.44787
C         -8.01969       -0.99607       -3.61954
C         -9.05118       -1.95661       -3.66060
C         -9.27372       -2.75467       -2.52971
C         -8.49760       -2.63645       -1.34392
S        -10.58776       -3.84452       -2.79426
C        -10.85808       -3.26359       -4.37387
C         -9.97799       -2.26385       -4.71163
C         -6.24424        0.11331       -2.20552
O         -5.77694        0.84818       -3.05058
C         -5.90586        0.01022       -0.74470
C         -5.32583        1.01368       -0.06128
C         -4.97690        2.25433       -0.67100
S         -6.15230        3.49567       -0.71329
C         -5.12348        4.61179       -1.54314
C         -3.88907        4.01393       -1.77661
C         -3.79915        2.67966       -1.25549
S         -2.35624        1.65955       -1.36034
C         -1.13229        2.83452       -1.71601
O         -0.09773        3.03320       -1.11275
C         -1.54381        3.46234       -3.02837
O         -1.14016        3.15369       -4.13124
S         -2.54251        4.81863       -2.60354
C         -5.61129        5.91544       -1.91073
C         -6.53138        6.56300       -1.17497
C         -7.07243        7.88172       -1.45924
C         -7.99597        8.51643       -0.71422
C         -8.48272        9.85299       -0.96540
C         -9.34082       10.30382       -0.03657
C         -9.61848        9.35179        1.02660
S         -8.75401        7.84849        0.71274
C        -10.39353        9.54732        2.11235
C        -11.11114       10.75876        2.46185
C        -11.79271       10.67607        3.61426
C        -11.68098        9.38896        4.27125
S        -10.65323        8.32267        3.35628
C        -12.26643        9.09670        5.44608
N        -12.30644        7.96798        6.26967
C        -13.05712        7.98518        7.54674
C        -12.39865        8.87633        8.61744
C        -12.58664        8.21454        9.97167
N        -12.14532        8.92696       11.17295
S        -11.85946        7.82891       12.40577
N        -11.82679        6.47733       11.40466
C        -11.75396        6.91337        9.99589
C        -12.18036        5.92072        8.91358
C        -13.27049        6.49781        7.98949
N        -13.40568        5.72766        6.75303
S        -12.55059        6.46242        5.52181
C        -13.98310        4.48767        6.56059
C        -14.97588        3.87365        7.21897
C        -15.78588        4.31198        8.34921
C        -16.57180        5.41188        8.40799
C        -17.29064        5.77190        9.58579
N        -17.80304        6.09654       10.57098
C        -16.75518        6.26571        7.28171
N        -16.95526        6.97510        6.38204
C        -15.86894        3.14674        9.25652
C        -15.61352        2.00266        8.48877
C        -15.11823        2.38513        7.14555
O        -14.81210        1.64164        6.23975
C        -15.69505        0.71516        8.99346
C        -15.96543        0.57651       10.37573
C        -16.13141        1.72962       11.15893
C        -16.10538        3.03483       10.61609
S        -16.34614        1.33117       12.82374
C        -16.24657       -0.33988       12.51364
C        -16.07731       -0.60874       11.17666
H         -7.82262       -0.33624       -4.45933
H         -8.74564       -3.26779       -0.49800
H        -11.65033       -3.67775       -4.98285
H         -9.99375       -1.76264       -5.67261
H         -5.17472        0.97286        1.01233
H         -5.19812        6.38171       -2.80195
H         -6.90735        6.09446       -0.26829
H         -6.66925        8.38609       -2.33547
H         -8.15968       10.43647       -1.81676
H         -9.77889       11.29103       -0.07159
H        -11.08939       11.65443        1.85767
H        -12.37129       11.49080        4.02773
H        -12.82620        9.90523        5.91510
H        -14.05935        8.39046        7.33984
H        -12.86492        9.86839        8.60446
H        -11.33243        9.02895        8.40793
H        -13.65527        7.99100       10.11563
H        -12.82356        9.63274       11.45806
H        -12.66534        5.92400       11.56980
H        -10.69650        7.15822        9.80585
H        -12.53302        4.98143        9.36032
H        -11.29043        5.64008        8.33361
H        -14.20084        6.47563        8.55833
H        -13.46963        3.92132        5.77740
H        -15.50735       -0.14640        8.35913
H        -16.23110        3.89177       11.26818
H        -16.31840       -1.04845       13.32714
H        -16.00365       -1.61572       10.78328
