88

C        -14.85159        6.04091        2.36594
C        -15.30872        5.16401        3.29499
C        -16.46353        5.42151        4.09810
N        -17.40641        5.61725        4.75432
C        -14.71114        3.88685        3.52118
N        -14.25249        2.84601        3.74355
C        -15.47437        7.35910        2.03419
C        -14.98632        7.79188        0.79829
C        -15.33578        8.99740        0.20297
C        -16.19497        9.85657        0.92293
C        -16.66349        9.44598        2.17971
C        -16.32166        8.19580        2.75085
S        -17.65366       10.66140        2.90543
C        -17.43960       11.70375        1.59663
C        -16.66965       11.17239        0.59722
Br       -18.17197       13.42575        1.52925
C        -13.95510        6.87354        0.29742
O        -13.34524        6.97307       -0.74838
C        -13.76077        5.85541        1.37777
C        -12.65243        5.09835        1.37908
N        -11.62202        5.05294        0.44439
C        -10.54365        4.20248        0.40905
S        -10.32985        2.95355        1.59285
C         -8.89978        2.40772        0.89837
N         -8.17746        1.30833        1.47516
O         -7.10551        1.01271        0.93030
O         -8.66047        0.73791        2.46159
C         -8.54025        3.12470       -0.21198
C         -9.48483        4.16628       -0.50812
C         -9.30528        5.10786       -1.58155
C         -8.30619        5.08909       -2.48318
N         -8.02647        6.09076       -3.38485
C         -7.02399        6.00182       -4.30689
O         -6.24994        5.08598       -4.53090
C         -6.94908        7.28945       -4.98971
C         -7.83388        8.12277       -4.43319
C         -8.52206        7.36544       -3.36961
O         -9.31931        7.88751       -2.60204
C         -8.02507        9.54463       -4.63011
C         -7.87036       10.22306       -5.77475
C         -7.94077       11.65566       -5.94816
C         -7.62454       12.06465       -7.19144
C         -7.31225       10.97508       -8.10070
S         -7.52796        9.44136       -7.27617
C         -6.93816       11.00426       -9.39298
C         -6.77471       12.14023      -10.27103
C         -6.48373       11.80314      -11.54114
C         -6.36184       10.37208      -11.76072
S         -6.58669        9.51909      -10.27263
C         -6.15421        9.76209      -12.94017
C         -6.06369        8.32826      -13.19221
C         -6.47530        7.76044      -14.35452
C         -6.24347        6.33879      -14.24327
C         -6.51626        5.33253      -15.09345
C         -6.17803        3.99847      -14.63619
C         -6.36983        2.79709      -15.21220
C         -5.87549        1.73518      -14.32107
C         -5.34936        2.29772      -13.20939
C         -5.53404        3.72410      -13.34095
C         -5.24901        4.73268      -12.49779
C         -5.61615        6.06373      -12.94730
C         -5.48879        7.25622      -12.34627
C         -5.93741        0.31320      -14.54131
C         -7.08475       -0.33174      -14.78692
H        -14.91161        9.28772       -0.75437
H        -16.68913        7.96363        3.74381
H        -16.42289       11.69494       -0.31886
H        -12.46769        4.44237        2.22153
H        -11.75793        5.71957       -0.32665
H         -7.63182        2.92116       -0.76932
H        -10.02675        5.91856       -1.63180
H         -7.59879        4.26213       -2.52734
H         -6.22050        7.47039       -5.76099
H         -8.30583       10.08624       -3.72746
H         -8.19076       12.32512       -5.13539
H         -7.59366       13.10427       -7.48538
H         -6.91406       13.16028       -9.94464
H         -6.35800       12.51812      -12.34147
H         -6.09172       10.38167      -13.83205
H         -6.92896        8.24975      -15.19991
H         -6.97971        5.48129      -16.05881
H         -6.82238        2.60733      -16.17243
H         -4.92093        1.79340      -12.35883
H         -4.79843        4.58208      -11.52555
H         -5.04725        7.41431      -11.37512
H         -5.00292       -0.23962      -14.48666
H         -8.03669        0.19082      -14.81649
H         -7.09871       -1.40555      -14.94025
