97

C          4.33023       -8.28463       13.85221
C          4.60838       -7.90303       12.60518
C          4.91255       -6.56348       12.18309
C          5.19202       -6.46614       10.87589
C          5.14893       -7.73810       10.16820
S          4.65716       -9.02372       11.27756
C          5.44473       -7.94428        8.87024
C          5.81256       -6.93228        7.89641
C          6.04650       -7.41646        6.66863
C          5.90645       -8.85267        6.57344
S          5.44835       -9.53647        8.10973
C          6.14532       -9.55469        5.45496
C          6.09806      -11.00536        5.30913
C          6.60281      -11.70952        4.28305
C          6.63548      -13.15358        4.21015
C          7.34634      -13.62902        3.17508
C          7.91328      -12.59149        2.33198
S          7.37716      -11.00539        2.89385
C          8.79859      -12.73862        1.33049
C          9.47641      -13.95364        0.90803
C         10.61625      -13.70706        0.23894
C         10.88300      -12.28821        0.09217
S          9.44246      -11.37539        0.42394
C         12.07510      -11.74337       -0.18373
C         12.40635      -10.33539       -0.16935
C         12.30793       -9.44441        0.83767
O         11.74850       -9.72675        2.06554
C         10.94934       -8.63576        2.53590
C         11.85499       -7.53234        3.04216
S         12.85014       -6.82161        1.70249
C         12.90903       -8.13579        0.57204
C         13.46207       -8.03944       -0.65584
S         13.21536       -9.59004       -1.58331
N         11.77330       -9.00863       -2.23645
C         11.03525       -9.79643       -3.20736
C         14.16817       -6.91927       -1.24895
C         14.37201       -6.76364       -2.56525
C         15.06288       -5.64400       -3.16872
C         15.53248       -5.62534       -4.42663
C         16.20009       -4.49901       -5.03062
C         16.63804       -4.73701       -6.27480
C         16.35471       -6.07796       -6.75876
S         15.46624       -6.97652       -5.53493
C         16.70046       -6.58767       -7.95659
C         17.41496       -5.89094       -9.00888
C         17.61802       -6.62524      -10.11109
C         17.10389       -7.97214      -10.01392
S         16.33240       -8.23423       -8.47059
C         17.26602       -8.90105      -10.96832
C         16.84093      -10.28758      -10.88832
C         17.30371      -11.30706      -11.62675
C         16.88064      -12.67308      -11.43893
C         17.47536      -13.53855      -12.27143
C         18.39981      -12.92150      -13.20407
S         18.52298      -11.19303      -12.87236
C         19.05628      -13.55186      -14.19924
C         18.93983      -14.96820      -14.52548
C         19.65261      -15.33831      -15.59141
C         20.39072      -14.26045      -16.18752
S         20.15884      -12.76353      -15.33005
C         21.15884      -14.36409      -17.27526
H          4.32099       -7.57951       14.67597
H          4.10958       -9.32188       14.08662
H          4.91997       -5.72517       12.86812
H          5.45263       -5.53123       10.40048
H          5.88103       -5.87965        8.13225
H          6.32835       -6.80224        5.82369
H          6.43893       -8.99422        4.56912
H          5.64795      -11.55761        6.13122
H          6.15451      -13.78118        4.94785
H          7.49294      -14.68313        2.98894
H          9.14037      -14.94711        1.16928
H         11.30322      -14.47044       -0.09988
H         12.91961      -12.39471       -0.39361
H         10.34442       -9.01594        3.36723
H         10.24233       -8.29337        1.76625
H         12.54576       -7.92538        3.79357
H         11.26545       -6.73134        3.50093
H         11.79818       -8.04429       -2.57354
H         10.14255       -9.24221       -3.51403
H         10.69959      -10.74582       -2.78103
H         11.63629       -9.99289       -4.10129
H         14.55680       -6.17569       -0.55706
H         13.98481       -7.50702       -3.25717
H         15.19225       -4.76553       -2.54002
H         16.32917       -3.55660       -4.51695
H         17.16096       -3.99584       -6.86187
H         17.75801       -4.87112       -8.91617
H         18.13959       -6.26468      -10.98697
H         17.79229       -8.61361      -11.87670
H         16.09147      -10.51305      -10.13158
H         16.16499      -12.96408      -10.68210
H         17.27905      -14.60083      -12.24240
H         18.31715      -15.64822      -13.97050
H         19.66754      -16.34555      -15.98515
H         21.27896      -15.30903      -17.79759
H         21.68839      -13.50803      -17.67961
