121

C          3.55824       -5.02592        3.63534
C          4.67486       -5.44589        2.91677
F          5.85752       -5.54069        3.53961
C          4.56641       -5.77447        1.57355
F          5.64224       -6.18839        0.89040
C          3.33934       -5.69157        0.92479
C          2.19670       -5.28681        1.63100
C          2.30266       -4.94392        3.01109
C          1.15295       -4.55343        3.73529
C         -0.08882       -4.51675        3.10866
C         -0.15824       -4.89395        1.76223
C          0.94778       -5.25187        1.00459
C         -1.55351       -4.95986        1.30843
O         -1.90295       -5.24606        0.18208
C         -2.39822       -4.67000        2.52168
C         -1.47060       -4.19671        3.58375
C         -1.78417       -3.46626        4.68276
C         -0.79467       -2.96350        5.59027
N          0.00783       -2.56901        6.32228
C         -3.12197       -3.08941        5.00231
N         -4.21313       -2.80198        5.27084
C         -3.70985       -4.95840        2.58877
C         -4.46432       -5.43195        1.47992
S         -4.66571       -7.12008        1.22325
C         -5.68215       -6.90066       -0.16934
C         -5.83123       -5.55025       -0.41731
C         -5.13270       -4.73524        0.50221
C         -5.23683       -3.32501        0.25783
O         -4.73228       -2.42659        0.90611
S         -6.24381       -3.06904       -1.16694
C         -6.53796       -4.78985       -1.41977
O         -7.27196       -5.20370       -2.30227
C         -6.17501       -8.07479       -0.80232
C         -7.36303       -8.09842       -1.41745
C         -7.91874       -9.26016       -2.05525
C         -8.17265      -10.39801       -1.37378
C         -8.97460      -11.28861       -2.17897
O         -9.34607      -12.45548       -1.58355
C         -9.57857      -13.56917       -2.43632
C         -9.25954      -10.71030       -3.37354
C         -8.57073       -9.39621       -3.37709
C         -8.52350       -8.51745       -4.40297
C         -7.71547       -7.30730       -4.50244
C         -7.97583       -6.73793       -5.69225
O         -7.38698       -5.61928       -6.20209
C         -7.32146       -5.58891       -7.62545
C         -8.95316       -7.52138       -6.40258
C         -9.26304       -8.58455       -5.65653
C        -10.20270      -11.22467       -4.32239
C         -9.94793      -11.60804       -5.58649
C        -10.98987      -12.06014       -6.44894
S        -12.59900      -12.19073       -5.87995
C        -13.15292      -13.02955       -7.25504
C        -12.07449      -13.28321       -8.09566
C        -10.97964      -12.37773       -7.80018
C         -9.94411      -12.02943       -8.85079
N         -9.70664      -10.52404       -8.98889
O        -10.65570       -9.75501       -8.78103
O         -8.58047      -10.17725       -9.37064
C        -10.41768      -12.49566      -10.24893
C        -10.83987      -13.96539      -10.22399
C        -12.01702      -14.25159       -9.26068
N        -11.89454      -15.69905       -8.73391
O        -10.88288      -16.35651       -9.01242
O        -12.85041      -16.13112       -8.07774
C        -14.54156      -13.34022       -7.37496
C        -15.33623      -13.48311       -6.29884
C        -16.75774      -13.69390       -6.34956
C        -17.40309      -14.70740       -6.93534
C        -18.87696      -14.55769       -7.13106
O        -19.63722      -13.81813       -6.56099
C        -19.20339      -15.46623       -8.23573
C        -20.44914      -15.59441       -8.82443
C        -20.58425      -16.50500       -9.87373
C        -19.44435      -17.23142      -10.33714
C        -19.60292      -18.15403      -11.38025
C        -20.86043      -18.36852      -11.93705
C        -21.96478      -17.66041      -11.48493
C        -21.83509      -16.72550      -10.46536
F        -23.17236      -17.88088      -12.01832
F        -20.99479      -19.28230      -12.90694
C        -18.18528      -17.04412       -9.73465
C        -18.06796      -16.18760       -8.65041
C        -16.95797      -15.87526       -7.70468
C        -15.89883      -16.67637       -7.43305
C        -15.14335      -16.54466       -6.22398
N        -14.57310      -16.47269       -5.22080
C        -15.52311      -17.76942       -8.26652
N        -15.22940      -18.63112       -8.98593
H          3.68493       -4.78009        4.68681
H          3.28827       -5.96385       -0.12623
H          1.26667       -4.32390        4.79066
H          0.82206       -5.53479       -0.03779
H         -4.27312       -4.85421        3.50998
H         -5.57453       -8.98290       -0.76115
H         -8.00558       -7.22501       -1.47155
H         -7.93525      -10.59473       -0.33817
H         -9.80338      -14.43876       -1.81051
H         -8.68038      -13.79659       -3.01964
H        -10.44471      -13.41768       -3.08234
H         -6.98207       -6.96048       -3.80119
H         -6.77184       -4.69330       -7.92300
H         -8.32054       -5.52134       -8.06985
H         -6.78732       -6.46595       -8.00893
H         -9.38813       -7.31160       -7.36482
H         -9.99478       -9.29177       -5.97785
H        -11.20792      -11.22145       -3.90583
H         -8.93395      -11.55083       -5.97598
H         -8.97642      -12.47285       -8.59125
H         -9.60957      -12.36814      -10.98016
H        -11.26145      -11.88934      -10.60658
H         -9.93626      -14.53150       -9.96768
H        -11.12328      -14.29220      -11.23220
H        -12.96377      -14.23951       -9.81289
H        -14.96066      -13.38731       -8.37600
H        -14.95330      -13.40074       -5.28165
H        -17.33568      -12.90548       -5.86134
H        -21.28628      -15.00831       -8.45388
H        -18.76468      -18.73685      -11.75333
H        -22.71962      -16.19076      -10.13007
H        -17.33676      -17.59904      -10.12220
