118

C         -3.46709        3.40073        6.40365
C         -3.34375        3.64901        7.76926
F         -3.53047        4.89376        8.22892
C         -3.03176        2.62225        8.64825
F         -2.92896        2.86442        9.96207
C         -2.81613        1.33287        8.17646
C         -2.91080        1.06253        6.80382
C         -3.26274        2.10665        5.89573
C         -3.40347        1.82990        4.51472
C         -3.16687        0.54507        4.03839
C         -2.79200       -0.44569        4.95837
C         -2.66507       -0.22460        6.31979
C         -2.63152       -1.74407        4.28710
O         -2.08811       -2.72244        4.75156
C         -3.22684       -1.55445        2.92737
C         -3.26240       -0.09324        2.69004
C         -3.21424        0.53043        1.48764
C         -3.16515       -0.18806        0.25550
N         -3.14375       -0.77755       -0.73869
C         -3.15622        1.94862        1.36319
N         -3.11935        3.10272        1.27313
C         -3.77813       -2.54417        2.20883
C         -3.84308       -3.94609        2.53804
C         -3.30207       -4.89836        1.75024
C         -3.61150       -6.21510        2.31658
C         -4.38882       -5.94327        3.54089
C         -4.52343       -4.60759        3.64129
C         -4.98274       -6.84764        4.45612
N         -5.50849       -7.56163        5.20055
C         -3.24695       -7.39906        1.77929
C         -3.53444       -8.70956        2.34265
C         -3.00213       -9.66860        1.55302
C         -2.36658       -8.99571        0.42976
C         -2.49985       -7.66251        0.54340
C         -2.00049       -6.75551       -0.41750
N         -1.58918       -6.03450       -1.22702
C         -3.12237      -11.07723        1.82835
N         -3.31620      -12.07296        0.86527
C         -3.40899      -11.91703       -0.56140
C         -3.46218      -13.34004        1.44821
O         -3.66860      -14.40852        0.91177
C         -3.31750      -13.06570        2.88378
C         -3.09583      -11.65579        3.03639
C         -2.92772      -11.38281        4.47416
O         -2.68427      -10.31141        4.98947
N         -3.08531      -12.65824        5.05312
C         -2.98741      -12.85271        6.48045
C         -3.32872      -13.64087        4.08724
C         -3.51994      -15.03685        4.38516
C         -4.29309      -15.86184        3.65763
C         -4.59009      -17.25459        3.93434
C         -5.27348      -17.72571        5.01000
N         -5.73100      -16.93116        6.13873
O         -6.77936      -17.30134        6.68634
O         -5.04470      -15.98333        6.53626
C         -5.73308      -19.08022        4.79239
C         -5.33702      -19.49501        3.57927
C         -4.52839      -18.43458        2.97224
C         -3.86157      -18.52251        1.79106
C         -3.07830      -17.41721        1.24282
C         -2.73475      -17.71840       -0.01272
C         -3.17320      -19.06276       -0.29557
N         -2.82646      -19.65863       -1.56848
O         -2.87070      -18.91256       -2.55719
O         -2.47189      -20.84105       -1.61686
C         -3.80925      -19.63950        0.75898
C         -4.20861      -21.03859        0.92952
C         -4.59145      -21.88058       -0.04326
C         -4.97743      -23.26858        0.11240
C         -4.75600      -24.21001       -0.82086
C         -5.64159      -25.41537       -0.88428
O         -6.38267      -25.84263       -0.02485
C         -5.48910      -25.94032       -2.25827
C         -6.09736      -27.07239       -2.77273
C         -5.73034      -27.48666       -4.05941
C         -4.84403      -26.68387       -4.84076
C         -4.44643      -27.13110       -6.10872
C         -4.87741      -28.36730       -6.57732
C         -5.73433      -29.14980       -5.81628
C         -6.18016      -28.71046       -4.57333
F         -6.12184      -30.35235       -6.26213
F         -4.43283      -28.80932       -7.76147
C         -4.31458      -25.49318       -4.31343
C         -4.57208      -25.16651       -2.98993
C         -3.92770      -24.22208       -2.03840
C         -2.61719      -23.87287       -2.11141
C         -1.86691      -23.62356       -0.92140
N         -1.24005      -23.53164        0.05159
C         -1.84612      -23.94076       -3.31147
N         -1.23654      -24.00525       -4.29419
H         -3.71510        4.23330        5.74983
H         -2.57259        0.55162        8.89195
H         -3.71442        2.63563        3.85554
H         -2.39860       -1.04666        6.97965
H         -4.28774       -2.32564        1.27298
H         -2.74170       -4.68616        0.85489
H         -5.07581       -4.08654        4.41017
H         -4.07539       -8.90329        3.25646
H         -1.85417       -9.50143       -0.37194
H         -4.24382      -11.25727       -0.80681
H         -3.57740      -12.88698       -1.04149
H         -2.46672      -11.52383       -0.94636
H         -2.82699      -11.89332        6.98432
H         -2.13451      -13.50106        6.69963
H         -3.91047      -13.29504        6.86350
H         -3.02573      -15.40447        5.28110
H         -4.78720      -15.49932        2.75636
H         -6.37481      -19.61573        5.47663
H         -5.62510      -20.43426        3.14141
H         -2.80160      -16.49921        1.72694
H         -2.16145      -17.10004       -0.68741
H         -4.13300      -21.42311        1.94500
H         -4.67657      -21.52805       -1.06766
H         -5.63760      -23.48971        0.95193
H         -6.77945      -27.64968       -2.15409
H         -3.75939      -26.55472       -6.72387
H         -6.84101      -29.35542       -4.00058
H         -3.65027      -24.89446       -4.93020
