116

C          1.79642        2.15792        7.69368
C          2.85106        2.16445        8.60465
F          3.19126        3.31348        9.20388
C          3.54602        0.99836        8.89117
F          4.54899        1.00886        9.77940
C          3.21705       -0.19053        8.25300
C          2.17941       -0.21316        7.31093
C          1.43295        0.97137        7.03750
C          0.35461        0.94043        6.11849
C          0.04839       -0.23504        5.44226
C          0.84549       -1.35617        5.70388
C          1.87935       -1.38788        6.62605
C          0.43052       -2.48930        4.88214
O          1.10315       -3.48032        4.69310
C         -0.89652       -2.10888        4.30158
C         -0.99844       -0.63188        4.44325
C         -1.77810        0.20938        3.71929
C         -2.66193       -0.25184        2.69616
N         -3.39310       -0.62876        1.87660
C         -1.74630        1.62140        3.87762
N         -1.71939        2.77766        4.01229
C         -1.80862       -3.01069        3.90080
C         -1.69778       -4.45645        3.89467
C         -2.33146       -5.22542        2.98180
C         -2.06137       -6.64055        3.27062
C         -1.20461       -6.63607        4.46417
C         -1.04187       -5.35613        4.83581
C         -0.56709       -7.71314        5.12741
N         -0.00724       -8.56713        5.67764
C         -2.54350       -7.68791        2.56693
C         -2.32608       -9.10106        2.87462
C         -2.98164       -9.86615        1.97036
C         -3.63957       -8.95957        1.04044
C         -3.39412       -7.68263        1.37414
C         -3.91135       -6.58815        0.65051
N         -4.34813       -5.70092        0.04133
C         -2.98414      -11.30849        1.99058
N         -2.96293      -12.15468        0.86619
C         -2.91245      -11.79946       -0.53728
C         -4.10336      -12.34401       -1.32178
C         -2.88010      -13.51214        1.24715
O         -2.77568      -14.51298        0.56768
C         -2.92143      -13.43883        2.70975
C         -2.98862      -12.06581        3.09644
C         -3.02800      -12.03106        4.57123
O         -3.12924      -11.04826        5.27718
N         -2.95308      -13.39924        4.92861
C         -3.03057      -13.79952        6.31863
C         -1.76578      -13.44003        7.08641
C         -2.88642      -14.21021        3.79574
C         -2.82822      -15.63861        3.71298
C         -2.26326      -16.48892        4.57586
C         -2.19388      -17.87877        4.29561
S         -0.87445      -18.77192        4.97476
C         -1.34138      -20.26121        4.23524
C         -2.49265      -20.06714        3.51902
C         -2.97915      -18.73373        3.55891
C         -4.21626      -18.63346        2.81002
O         -4.94155      -17.65579        2.70195
C         -4.49368      -20.00425        2.18289
C         -3.37494      -20.90287        2.73414
O         -3.25497      -22.10225        2.53857
C         -0.57496      -21.41589        4.52423
C          0.49040      -21.81332        3.81352
C          1.01418      -21.19984        2.61424
C          1.16102      -21.79109        1.41875
C          1.31733      -20.89510        0.22117
O          1.73676      -19.75791        0.18402
C          0.76437      -21.66040       -0.91147
C          0.55046      -21.19142       -2.19899
C         -0.06016      -22.05212       -3.12241
C         -0.47914      -23.35175       -2.70547
C         -1.09630      -24.20821       -3.62670
C         -1.28097      -23.80101       -4.94249
C         -0.87122      -22.53980       -5.35249
C         -0.27152      -21.66125       -4.45360
F         -1.04589      -22.15782       -6.62475
F         -1.85225      -24.64288       -5.81344
C         -0.26187      -23.77944       -1.38402
C          0.40308      -22.95028       -0.49400
C          0.86768      -23.13861        0.90891
C          1.21274      -24.33240        1.45142
C          1.98376      -24.43997        2.64352
N          2.63265      -24.55787        3.59856
C          0.95415      -25.57992        0.81046
N          0.73634      -26.59386        0.28857
H          1.27801        3.09314        7.49831
H          3.78378       -1.08618        8.49471
H         -0.21350        1.85316        5.96766
H          2.42915       -2.31113        6.79279
H         -2.78340       -2.67818        3.54994
H         -2.93038       -4.83078        2.17821
H         -0.45506       -5.02855        5.68192
H         -1.75771       -9.48468        3.70738
H         -4.25393       -9.28137        0.21291
H         -1.99158      -12.22130       -0.95605
H         -2.85061      -10.72031       -0.66896
H         -4.03024      -13.42967       -1.45012
H         -4.13575      -11.90154       -2.32231
H         -5.05159      -12.13220       -0.81721
H         -3.24555      -14.86597        6.41412
H         -3.88040      -13.27523        6.77079
H         -0.89250      -13.95601        6.67503
H         -1.86620      -13.71632        8.14050
H         -1.56591      -12.36431        7.04089
H         -3.21741      -16.02269        2.76987
H         -1.76105      -16.12275        5.46556
H         -4.41178      -19.93360        1.09551
H         -5.47150      -20.36564        2.50558
H         -0.84362      -21.97201        5.41973
H          1.03932      -22.65668        4.21635
H          1.18599      -20.12301        2.68689
H          0.85235      -20.18178       -2.46726
H         -1.42495      -25.20460       -3.34100
H          0.03364      -20.68147       -4.81108
H         -0.62157      -24.75986       -1.08607
