107

C         -3.46313       -4.20848       -8.80205
C         -3.66408       -5.45652       -8.30836
C         -2.63444       -6.43628       -8.20542
N         -1.80870       -7.24288       -8.12169
C         -4.92878       -5.92062       -7.83291
N         -5.94161       -6.33113       -7.44855
C         -2.15202       -3.65916       -9.28973
C         -2.32366       -2.31383       -9.61885
C         -1.30780       -1.47306      -10.06361
C         -0.01585       -2.01939      -10.19977
C          0.16900       -3.37819       -9.90928
C         -0.88688       -4.21551       -9.46207
S          1.81253       -3.84869      -10.16536
C          2.25784       -2.28341      -10.61231
C          1.21419       -1.39772      -10.60381
Br         4.00959       -1.80796      -11.07386
C         -3.71688       -1.90090       -9.44982
O         -4.13981       -0.79393       -9.71325
C         -4.45394       -3.10396       -8.93342
C         -5.76811       -3.04321       -8.66851
C         -6.63465       -1.89028       -8.85954
C         -7.33008       -1.28560       -7.88586
C         -8.32570       -0.25939       -8.08926
C         -9.08100       -0.02707       -7.00410
C         -8.70166       -0.82658       -5.85500
S         -7.19221       -1.68517       -6.19888
C         -9.40840       -1.02872       -4.73037
C        -10.75788       -0.60652       -4.42365
C        -11.31118       -1.31729       -3.42440
C        -10.41641       -2.31579       -2.85440
S         -8.82020       -2.03521       -3.43380
C        -10.82584       -3.32325       -2.07142
C        -10.09318       -4.39049       -1.45302
S        -10.95995       -5.88481       -1.24586
C         -9.85676       -6.49192       -0.07542
C         -8.92573       -5.49128        0.16948
C         -8.80229       -4.66231       -1.00177
C         -7.45420       -4.09475       -1.37430
C         -6.99052       -4.68692       -2.71961
C         -6.36015       -4.43563       -0.33521
C         -6.89374       -4.29844        1.08261
C         -7.99684       -5.34535        1.35502
C         -8.79225       -4.87972        2.58466
C         -9.91775       -7.80030        0.50708
C        -11.00368       -8.54852        0.75486
C        -10.96531       -9.81851        1.46202
C        -12.13587      -10.11975        2.05199
C        -13.12219       -9.06900        1.86270
S        -12.66303       -8.10048        0.48147
C        -14.07532       -8.69283        2.73290
C        -14.37905       -9.32739        3.99709
C        -14.97450       -8.49954        4.86791
C        -15.16783       -7.16210        4.34184
S        -14.92359       -7.14694        2.62111
C        -15.39957       -6.09169        5.11708
C        -15.46200       -4.70566        4.70844
C        -15.64457       -3.56112        5.39000
C        -15.86058       -3.08792        6.78218
C        -16.16748       -3.78050        7.91207
C        -16.29014       -3.17313        9.19353
N        -16.38932       -2.71678       10.25111
C        -16.42531       -5.17440        7.99285
N        -16.65244       -6.29817        8.17011
C        -15.75157       -1.57700        6.73246
C        -15.55164       -1.17332        5.41431
C        -15.50032       -2.32906        4.52345
O        -15.35979       -2.25897        3.31963
C        -15.42666        0.15267        4.99611
C        -15.52735        1.16576        5.97283
C        -15.73846        0.78306        7.30291
C        -15.84646       -0.57646        7.69860
S        -15.84914        2.16041        8.34053
C        -15.62041        3.22632        7.05308
C        -15.45416        2.59615        5.84839
Br       -15.59984        5.08789        7.25974
H         -1.51232       -0.42936      -10.28761
H         -0.65796       -5.25579       -9.26949
H          1.30698       -0.35018      -10.86454
H         -6.31567       -3.88965       -8.26696
H         -6.75701       -1.56118       -9.88945
H         -8.47064        0.22831       -9.04241
H         -9.89966        0.67714       -6.98183
H        -11.28858        0.14551       -4.98863
H        -12.33268       -1.19509       -3.08885
H        -11.89795       -3.35138       -1.86788
H         -7.51530       -3.00638       -1.40350
H         -6.75126       -5.75332       -2.62021
H         -6.09250       -4.17514       -3.08013
H         -7.75752       -4.62932       -3.49759
H         -5.50288       -3.76816       -0.48417
H         -5.98865       -5.45969       -0.47368
H         -7.27905       -3.27787        1.21572
H         -6.07946       -4.42270        1.80560
H         -7.52338       -6.31030        1.56978
H         -9.29898       -3.92559        2.38576
H         -8.13489       -4.73287        3.44771
H         -9.56554       -5.60323        2.86138
H         -8.95683       -8.19922        0.82605
H        -10.06952      -10.41787        1.54894
H        -12.29543      -10.98692        2.67558
H        -14.10104      -10.34460        4.23050
H        -15.22991       -8.77129        5.88290
H        -15.46550       -6.31000        6.16361
H        -15.27095       -4.59227        3.63513
H        -15.26524        0.39032        3.94760
H        -16.01019       -0.76655        8.75021
H        -15.29383        3.11784        4.91251
