114

C         -9.62185        4.14026       17.13928
C         -8.50905        3.35728       17.12805
C         -7.96568        2.76890       18.30707
N         -7.51606        2.28673       19.26358
C         -7.82783        3.01647       15.92492
N         -7.26939        2.73743       14.94492
C        -10.47724        4.44591       18.33810
C        -11.68080        4.98233       17.88150
C        -12.72417        5.39220       18.70457
C        -12.56220        5.25017       20.09657
C        -11.36108        4.71129       20.58124
C        -10.29838        4.31075       19.71686
S        -11.39056        4.62015       22.31170
C        -12.94448        5.27976       22.38938
C        -13.46536        5.58364       21.16174
Br       -13.87112        5.57040       23.99231
C        -11.70001        5.08635       16.41995
O        -12.67710        5.37572       15.75759
C        -10.31763        4.73131       15.95571
C         -9.86369        5.06072       14.72997
C        -10.64829        5.74546       13.74758
S        -10.63889        7.47560       13.68772
C        -11.68516        7.53916       12.32076
C        -12.06839        6.25983       11.96761
C        -11.43934        5.24424       12.73080
O        -11.54768        3.91286       12.49663
C        -12.45325        3.46725       11.59195
O        -12.36648        2.38353       11.02906
C        -13.72138        4.31210       11.41820
O        -14.85773        3.96940       11.67253
S        -13.20760        5.81033       10.71070
C        -12.05122        8.79348       11.73879
C        -11.54544        9.21660       10.56734
C        -12.04916       10.34315        9.81045
C        -11.64702       10.34102        8.52828
C        -10.79526        9.20960        8.19648
S        -10.27018        8.41698        9.68069
C        -10.57067        8.69878        6.97115
C        -11.15079        9.16130        5.72268
C        -11.14854        8.22387        4.76157
C        -10.55081        6.97520        5.18754
S         -9.70992        7.18188        6.69740
C        -10.71722        5.80532        4.55636
C        -10.29400        4.49194        5.06164
C         -9.05125        3.94249        4.71422
C         -8.76109        2.64847        5.13518
C         -9.68187        1.92110        5.92289
C        -10.89146        2.47490        6.30465
C        -11.19689        3.76325        5.86466
C         -9.18682        0.57922        6.12250
C         -7.97423        0.41866        5.42153
C         -7.54214        1.76674        4.82293
C         -7.25289        1.65481        3.30240
C         -8.39978        1.12874        2.44294
C         -6.26084        2.28514        5.53923
C         -6.37375        2.52211        7.04607
C         -7.36238       -0.82777        5.32327
C         -7.95752       -1.92206        5.96799
C         -9.13668       -1.72570        6.72048
C         -9.75297       -0.47742        6.80614
C         -7.39339       -3.27003        5.78339
C         -7.49324       -4.22578        6.71921
C         -6.96981       -5.56259        6.59829
C         -7.23792       -6.50055        5.68706
C         -8.07656       -6.59460        4.47807
C         -9.29645       -6.04096        4.27211
C        -10.01821       -6.18284        3.04862
N        -10.59671       -6.28503        2.04679
C        -10.02196       -5.36507        5.29856
N        -10.67568       -4.87993        6.12600
C         -7.46949       -7.67596        3.63535
C         -6.52695       -8.35827        4.41060
C         -6.35622       -7.71233        5.71574
O         -5.61466       -8.08044        6.60230
C         -5.84507       -9.49684        3.99905
C         -6.15018      -10.01033        2.72162
C         -7.06588       -9.31477        1.91731
C         -7.71552       -8.12786        2.34488
S         -7.28813      -10.11061        0.39959
C         -6.24146      -11.36187        0.83040
C         -5.67419      -11.19615        2.06528
Br        -5.89718      -12.83479       -0.27359
H        -13.63158        5.81326       18.28024
H         -9.39432        3.92003       20.16952
H        -14.44674        6.01717       21.00958
H         -8.84131        4.86745       14.42584
H        -12.86026        9.34102       12.21174
H        -12.74220       11.06480       10.22034
H        -11.97821       11.06640        7.79811
H        -11.61362       10.13043        5.60284
H        -11.60865        8.34988        3.79121
H        -11.31162        5.75613        3.64778
H         -8.34931        4.50056        4.10359
H        -11.60764        1.91248        6.89467
H        -12.16044        4.19202        6.13307
H         -6.38812        0.99645        3.14371
H         -6.96028        2.63763        2.91046
H         -8.71624        0.12858        2.75241
H         -8.07558        1.06045        1.39904
H         -9.26703        1.79392        2.47643
H         -5.93774        3.22836        5.07945
H         -5.44472        1.56838        5.37549
H         -6.96873        3.41503        7.26178
H         -5.37720        2.68122        7.47176
H         -6.81828        1.67269        7.57187
H         -6.45251       -0.94743        4.74319
H         -9.61960       -2.55715        7.22895
H        -10.66860       -0.36212        7.37603
H         -6.88810       -3.45499        4.83897
H         -7.93631       -4.00765        7.68990
H         -6.25436       -5.79356        7.39515
H         -5.13039       -9.98464        4.65662
H         -8.40221       -7.64198        1.66225
H         -4.97136      -11.89274        2.50672
