89

C          4.85668      -13.92048        2.42837
C          5.70554      -13.70346        1.42147
C          6.75710      -14.59513        1.01619
C          7.43982      -14.15782       -0.05054
C          6.97201      -12.87998       -0.57191
S          5.64788      -12.27500        0.42709
C          7.44871      -12.25027       -1.66472
C          8.51230      -12.74119       -2.52382
C          8.77535      -11.95281       -3.57336
C          7.94877      -10.77065       -3.62679
S          6.84563      -10.70290       -2.27897
C          8.02336       -9.85031       -4.59818
N          7.29455       -8.68780       -4.77192
C          7.32453       -7.82069       -5.82846
C          8.09553       -7.99306       -6.96216
S          7.85541       -6.76982       -8.12900
C          6.72361       -5.97786       -7.12732
C          6.53010       -6.61923       -5.91923
N          5.70762       -6.15646       -4.93086
C          4.69226       -5.22911       -5.04916
C          3.90812       -4.72949       -4.08265
C          2.79291       -3.82760       -4.33394
C          1.71882       -4.08841       -5.09889
C          0.59150       -3.20320       -5.29054
C         -0.40624       -3.74041       -6.01396
C         -0.14665       -5.09849       -6.45294
S          1.47371       -5.58502       -5.95621
C         -0.98740       -5.93161       -7.09512
C         -2.36050       -5.68984       -7.49231
C         -3.00336       -6.78935       -7.92310
C         -2.18751       -7.98801       -7.90976
S         -0.53749       -7.57435       -7.51895
C         -2.64770       -9.23787       -8.10952
C         -1.86518      -10.42809       -8.02756
N         -0.52796      -10.41638       -8.38972
C          0.08392      -11.63428       -8.17797
C         -0.90439      -12.47429       -7.71991
C         -2.12750      -11.72485       -7.64447
N         -3.31686      -12.21976       -7.21029
C         -3.16066      -13.52894       -6.84662
C         -1.96069      -14.25995       -6.91148
N         -0.76606      -13.77716       -7.35753
C          1.46870      -11.71326       -8.45320
C          2.03633      -12.87093       -8.81549
C          3.44135      -13.02487       -9.10054
C          4.18726      -12.34565      -10.01657
C          3.75822      -11.26817      -10.95734
C          5.58566      -12.86363      -10.04394
C          5.65417      -13.84319       -9.11731
C          4.34770      -13.99744       -8.51060
C          4.13854      -14.90002       -7.54161
C          5.25608      -15.72097       -7.12312
C          6.45544      -15.54544       -7.69912
O          6.70941      -14.61514       -8.69691
C          6.68556      -12.35213      -10.83457
C          7.73839      -13.06099      -11.26155
H          4.90714      -14.82149        3.02972
H          4.07939      -13.20385        2.67528
H          6.96391      -15.52564        1.52660
H          8.25990      -14.71198       -0.48302
H          9.04114      -13.66701       -2.34795
H          9.52546      -12.17447       -4.32029
H          8.75571      -10.01365       -5.38366
H          6.58614       -8.56856       -4.04994
H          8.78685       -8.78884       -7.19281
H          6.27494       -5.06009       -7.47668
H          5.77572       -6.56441       -4.00337
H          4.50526       -4.92784       -6.07848
H          4.08437       -4.98790       -3.04274
H          2.84130       -2.88964       -3.78523
H          0.56088       -2.20658       -4.87173
H         -1.32499       -3.21626       -6.23420
H         -2.83162       -4.72017       -7.41822
H         -4.04060       -6.80003       -8.23006
H         -3.71383       -9.38584       -8.27239
H         -0.04351       -9.58189       -8.69485
H         -4.06313      -14.00707       -6.47677
H         -1.93504      -15.29619       -6.58651
H          2.07630      -10.81343       -8.37331
H          1.44820      -13.78452       -8.87423
H          2.69058      -11.04428      -10.88408
H          3.95133      -11.56331      -11.99419
H          4.30247      -10.34025      -10.75293
H          3.17621      -15.01982       -7.05657
H          5.09842      -16.45657       -6.34336
H          7.34661      -16.10316       -7.45163
H          6.62146      -11.30302      -11.11480
H          7.85328      -14.11707      -11.03951
H          8.51195      -12.59238      -11.86089
