110

C        -10.21743       12.64232        2.67832
C         -9.31757       13.22587        3.50828
C         -9.52395       14.50069        4.10631
N         -9.66966       15.53848        4.60012
C         -8.03754       12.66553        3.80877
N         -6.99507       12.22761        4.05677
C        -11.48645       13.26146        2.16279
C        -11.94514       12.49919        1.08852
C        -13.06256       12.79999        0.31550
C        -13.76444       13.98175        0.61625
C        -13.33378       14.75523        1.70512
C        -12.21606       14.39446        2.51068
S        -14.32492       16.16161        1.88413
C        -15.26308       15.75562        0.53989
C        -14.89961       14.56992       -0.03804
Br       -16.66185       16.82466       -0.10047
C        -11.10187       11.32758        0.87126
O        -11.34094       10.49104        0.02573
C        -10.02345       11.37807        1.92204
C         -9.11174       10.40303        2.08013
C         -8.89239        9.42991        1.07301
S         -7.67064        9.74576       -0.09641
C         -8.09191        8.36799       -1.00070
C         -9.09877        7.63895       -0.40559
C         -9.51229        8.21535        0.84570
C        -10.56121        7.57665        1.71691
C        -10.76903        6.06753        1.41179
C        -10.88211        5.87185       -0.12341
C         -9.68275        6.37197       -0.94122
C         -9.78410        5.10023        2.10069
C         -8.44676        5.17478        1.96120
C        -10.33455        4.00297        2.92480
C        -11.20228        3.12387        2.38458
C        -11.70722        1.99473        3.11655
C        -11.27354        1.67796        4.48235
C        -10.43318        2.42434        5.19444
S         -9.71957        3.88920        4.58753
C        -11.90328        0.46800        4.83605
C        -12.69782        0.04584        3.79836
C        -13.31879       -1.18935        4.03775
C        -12.95515       -1.66040        5.29212
S        -11.87307       -0.58860        6.12844
C        -12.57722        1.01545        2.73594
C        -13.20448        0.89026        1.44591
C        -14.53200        0.90178        1.26121
C        -15.15314        0.68053       -0.00677
S        -16.66726        1.45956       -0.29669
C        -16.89561        0.65643       -1.77653
C        -15.86101       -0.20121       -2.07120
C        -14.80040       -0.11867       -1.09606
C        -13.53868       -0.93482       -1.23211
C        -13.39706       -1.71418       -2.55762
C        -14.76321       -2.21127       -3.08526
C        -15.81899       -1.11714       -3.25481
C        -12.49371       -1.04506       -3.62250
C        -11.42169       -1.73242       -4.06489
C        -12.90341        0.23868       -4.19326
C        -12.21577        1.24792       -4.74388
C        -10.79850        1.48718       -4.98797
C         -9.82737        1.39341       -4.04702
C         -8.45505        1.57723       -4.33862
N         -7.31888        1.65224       -4.59185
C        -10.15786        1.19988       -2.66861
N        -10.42266        1.11987       -1.54589
C        -10.70066        2.38267       -6.17596
C        -11.94826        3.00555       -6.30651
C        -12.95352        2.34569       -5.45281
O        -14.13257        2.62130       -5.39031
C        -12.17466        4.11235       -7.10872
C        -11.08015        4.61473       -7.84538
C         -9.86226        3.91297       -7.81899
C         -9.65592        2.76643       -7.00695
S         -8.69856        4.67015       -8.85267
C         -9.74465        5.94875       -9.20339
C        -10.98250        5.80780       -8.63823
Br        -9.26068        7.42023      -10.25688
H        -13.35671       12.15396       -0.50825
H        -11.96109       15.03140        3.34948
H        -15.39255       14.14035       -0.90280
H         -8.40024       10.37246        2.89439
H         -7.57233        8.15694       -1.92497
H        -11.51138        8.10038        1.53149
H        -10.32331        7.73232        2.77572
H        -11.76280        5.83709        1.82484
H        -11.76703        6.43097       -0.45911
H        -11.07546        4.82348       -0.37541
H        -10.00934        6.54263       -1.97568
H         -8.90324        5.60291       -0.97936
H         -7.78729        4.45156        2.43794
H         -7.95808        5.93211        1.36807
H        -11.50903        3.21760        1.34776
H        -10.16400        2.13371        6.20556
H        -13.96741       -1.72157        3.35418
H        -13.25306       -2.58508        5.76648
H        -12.50693        0.77941        0.62494
H        -15.18499        1.08375        2.11454
H        -17.79473        0.82940       -2.35213
H        -13.52641       -1.65915       -0.40564
H        -12.66301       -0.29653       -1.10975
H        -12.86519       -2.63454       -2.26687
H        -15.15148       -2.93952       -2.35839
H        -14.63910       -2.75772       -4.02755
H        -16.79875       -1.58767       -3.39681
H        -15.64941       -0.54280       -4.16848
H        -10.79248       -1.41580       -4.88779
H        -11.14122       -2.68427       -3.61436
H        -13.97354        0.40257       -4.18511
H        -13.14371        4.60389       -7.11675
H         -8.68966        2.27155       -7.01068
H        -11.78627        6.52592       -8.75151
