110

C         -3.75936        2.60387       -8.59923
C         -4.06066        1.32521       -8.76203
C         -3.48943        0.37415       -9.75154
C         -2.46586        0.88518      -10.66721
C         -2.04667        2.15734      -10.62726
S         -2.59194        3.42254       -9.57369
N         -3.96468       -0.85371       -9.68492
C         -4.88238       -0.75550       -8.60527
C         -4.93782        0.49714       -8.07715
S         -5.96789        0.63684       -6.78999
C         -6.35150       -1.07706       -6.86193
C         -5.69440       -1.68187       -7.94244
C         -7.19930       -1.70703       -5.89445
C         -7.83066       -1.03026       -4.91816
C         -8.65717       -1.60957       -3.84545
C         -8.53499       -1.12272       -2.52864
C         -7.62736       -0.05396       -2.05071
O         -6.89088        0.62155       -2.74226
S         -7.71875        0.14747       -0.31975
C         -9.11742       -0.88657       -0.23483
O         -9.88828       -0.86393        0.70343
C         -9.29614       -1.65333       -1.48262
C        -10.14484       -2.76255       -1.66799
C        -10.29845       -3.22033       -2.97801
C         -9.61493       -2.62315       -4.04783
C        -10.07774       -3.15846       -5.33922
O         -9.86613       -2.66175       -6.42804
S        -11.07796       -4.57384       -5.13151
C        -11.14797       -4.33646       -3.40738
O        -11.81641       -5.04123       -2.66732
C        -10.75316       -3.42058       -0.49428
C        -11.97782       -2.98887       -0.09545
C        -12.31623       -3.11342        1.31721
C        -13.33843       -2.58157        2.04502
C        -14.76447       -2.12005        1.71842
C        -15.13973       -2.34291        0.22149
N        -16.46053       -1.87635       -0.21414
C        -15.82767       -2.91424        2.56717
N        -15.91142       -2.62050        3.99736
C        -12.70037       -2.39129        3.35756
C        -12.86918       -1.41725        4.26689
C        -11.98615       -1.30040        5.50368
C        -10.95404       -2.41355        5.64104
C        -10.73297       -3.32980        4.68106
C        -11.50446       -3.21203        3.47519
C        -11.25634       -3.62746        2.22920
C        -10.15850       -4.38997        1.69299
C         -9.94058       -4.30221        0.36785
C        -12.79759       -1.20420        6.77531
C        -14.02733       -1.71012        6.97100
C        -14.84222       -1.54760        8.17991
C        -14.80986       -0.37975        8.95457
C        -14.22752        0.92300        8.59043
O        -14.06400        1.32941        7.45788
S        -13.95546        1.90647       10.00588
C        -14.93502        0.84154       10.98130
O        -15.10501        1.00091       12.17458
C        -15.41306       -0.31712       10.21117
C        -16.28247       -1.31812       10.66119
C        -16.42840       -2.43434        9.82166
C        -15.69072       -2.57363        8.63930
C        -15.90973       -3.89628        8.01635
O        -15.41263       -4.28868        6.97746
S        -16.99014       -4.88868        8.96527
C        -17.30638       -3.58641       10.07912
O        -18.17464       -3.62417       10.92110
C        -16.97478       -1.21722       11.95681
C        -18.08088       -0.49950       12.15634
C        -18.76950       -0.33209       13.47450
C        -18.27898       -1.07112       14.63701
C        -17.18709       -1.83856       14.58337
S        -16.16010       -2.10162       13.22065
N        -19.79835        0.48756       13.47447
C        -19.84828        0.89324       12.12371
C        -18.88495        0.31500       11.35007
S        -19.01487        0.75565        9.74253
C        -20.35394        1.83940       10.10285
C        -20.68741        1.78619       11.45531
C        -20.93124        2.60813        9.05129
C        -21.46511        3.81701        9.27925
H         -4.25209        3.18526       -7.82376
H         -2.05262        0.17444      -11.37253
H         -1.27233        2.45564      -11.32974
H         -5.78057       -2.73037       -8.19720
H         -7.30887       -2.78440       -5.98897
H         -7.70700        0.04780       -4.84542
H        -12.51838       -2.26469       -0.68880
H        -14.85027       -1.04770        1.93610
H        -15.05619       -3.41217       -0.01436
H        -14.44061       -1.80420       -0.41647
H        -17.07405       -1.66577        0.56959
H        -16.92091       -2.61341       -0.74954
H        -15.66358       -3.99036        2.43595
H        -16.83801       -2.71408        2.20360
H        -15.04036       -2.19803        4.28919
H        -15.94848       -3.50364        4.51544
H        -13.59994       -0.62865        4.10827
H        -11.43513       -0.35539        5.39859
H        -10.35194       -2.43282        6.54459
H         -9.97328       -4.09480        4.77872
H         -9.55818       -5.01662        2.34032
H         -9.13955       -4.87282       -0.09144
H        -12.29873       -0.62734        7.55018
H        -14.45949       -2.32338        6.19200
H        -18.85493       -0.96544       15.54884
H        -16.89098       -2.35559       15.49226
H        -21.48664        2.35302       11.91365
H        -20.92734        2.21094        8.03922
H        -21.47348        4.28081       10.26122
H        -21.89607        4.39143        8.46549
