107

C        -14.73976       14.84892        2.13645
N        -15.04611       15.69511        1.08585
C        -14.97602       15.01414       -0.12491
C        -14.62644       13.73034        0.17720
C        -14.47724       13.63912        1.55792
S        -14.06311       12.05215        2.02127
O        -15.17639       11.57161        2.79728
O        -12.70012       12.14419        2.51670
C        -14.11641       11.46906        0.32855
C        -14.40908       12.50266       -0.50252
C        -13.87321       10.09247       -0.04796
C        -13.62582        9.10054        0.82430
C        -13.30796        7.77739        0.39614
N        -13.23555        7.32557       -0.85304
C        -12.64189        6.08776       -0.85153
C        -12.27098        5.61971        0.39588
S        -12.78719        6.62404        1.62135
C        -11.21595        4.59943        0.28771
C        -10.52306        5.19705       -1.00060
C        -11.75872        5.45986       -1.96853
C        -12.36911        4.12598       -2.49365
C        -13.56860        4.25529       -3.42627
C        -11.47801        6.49214       -3.08305
C        -10.39194        6.12494       -4.08187
N         -9.33916        4.36655       -1.34454
C         -8.86464        3.69961       -0.08915
S         -9.80542        4.40803        1.32009
C         -8.23216        5.08909       -1.89095
C         -7.36288        4.44272       -2.78737
C         -6.24368        5.10914       -3.31892
C         -6.07625        6.44598       -2.96518
N         -6.85665        7.10834       -2.09099
C         -7.88683        6.41061       -1.56298
C         -5.30755        4.42398       -4.22479
C         -4.01218        4.76806       -4.35338
C         -3.15848        4.07015       -5.25216
N         -3.28518        2.80609       -5.64075
C         -2.36407        2.55191       -6.61299
C         -1.56366        3.61781       -6.97537
S         -1.83939        4.95200       -6.01985
C         -0.89232        3.35011       -8.25468
C         -2.04542        2.47525       -8.87912
C         -2.37527        1.45387       -7.70198
C         -1.24932        0.41857       -7.40244
C         -0.88973       -0.52778       -8.53669
C         -3.76925        0.81180       -7.85330
C         -4.15780       -0.17785       -6.75344
N         -1.69469        2.07795      -10.26662
C         -0.64473        3.04005      -10.74949
S         -0.58695        4.45158       -9.58405
C         -2.74709        1.95878      -11.14859
N         -2.63148        1.04720      -12.19334
C         -3.72532        1.10892      -13.04155
C         -4.55730        2.04947      -12.51236
C         -3.97016        2.55877      -11.34937
S         -4.97391        3.78732      -10.69251
O         -4.23592        5.02044      -10.85401
O         -5.44413        3.27563       -9.42484
C         -6.20291        3.57597      -11.96168
C         -5.81019        2.62617      -12.83970
C         -7.43947        4.31378      -11.95315
C         -8.63557        3.72145      -11.83673
H        -14.74931       15.18399        3.16413
H        -15.29974       16.67010        1.18636
H        -15.19599       15.52255       -1.05412
H        -14.49105       12.41655       -1.57857
H        -13.88529        9.87661       -1.11636
H        -13.59194        9.29095        1.89355
H        -11.65058        3.60828        0.12346
H        -10.18135        6.20447       -0.72030
H        -11.59538        3.54420       -3.00766
H        -12.70971        3.50057       -1.66084
H        -13.27929        4.65706       -4.40097
H        -14.35110        4.88725       -2.99628
H        -14.00359        3.26384       -3.60128
H        -12.40592        6.68129       -3.63758
H        -11.21652        7.46271       -2.64071
H        -10.17765        5.05459       -4.10942
H         -9.47070        6.66589       -3.84828
H        -10.67790        6.43696       -5.09076
H         -7.78948        3.78886        0.10149
H         -9.10904        2.63345       -0.15946
H         -7.56311        3.41081       -3.06728
H         -5.27638        7.05314       -3.37914
H         -8.43200        6.99653       -0.83178
H         -5.71445        3.59566       -4.80397
H         -3.58054        5.59491       -3.80027
H          0.02531        2.77557       -8.08726
H         -2.92819        3.13056       -8.95443
H         -0.32812        0.92267       -7.08583
H         -1.52221       -0.18719       -6.52961
H         -0.54835        0.00514       -9.42552
H         -1.73063       -1.17103       -8.80713
H         -0.06089       -1.17307       -8.22358
H         -4.52864        1.59987       -7.85169
H         -3.84841        0.30334       -8.82057
H         -3.94929       -1.20521       -7.06937
H         -5.23169       -0.11030       -6.54843
H         -3.63601        0.00393       -5.80928
H         -0.80534        3.38926      -11.77512
H          0.32300        2.52503      -10.71458
H         -1.84011        0.43159      -12.30809
H         -3.78600        0.48191      -13.92167
H         -6.39077        2.32170      -13.70072
H         -7.36714        5.39591      -12.00161
H         -8.73606        2.64485      -11.73045
H         -9.54763        4.30948      -11.80546
