98

C          1.04888       -0.52207       -2.28414
C         -0.08484       -0.26230       -3.04502
F         -1.14168       -1.07934       -2.94837
C         -0.13110        0.81460       -3.91941
C          0.97034        1.66589       -4.02543
C          2.13598        1.42153       -3.28038
C          2.18044        0.29434       -2.40756
C          3.36758       -0.03122       -1.72581
C          4.51633        0.70681       -1.96956
C          4.42365        1.86935       -2.74874
C          3.26201        2.24750       -3.40424
C          5.72415        2.56452       -2.78958
O          5.95852        3.61296       -3.35210
C          6.65962        1.72596       -1.96573
C          5.96358        0.45799       -1.70360
C          6.49632       -0.78960       -1.71382
C          7.83283       -1.04143       -2.13882
N          8.87069       -1.31731       -2.57701
C          5.71784       -1.96998       -1.53377
N          5.08027       -2.92690       -1.37730
C          7.78239        2.29806       -1.50103
C          8.63512        1.73419       -0.50625
C          8.47912        1.61410        0.86710
C          9.62556        1.01198        1.49898
S          9.72773        0.73795        3.24120
C          7.99128        0.37503        3.58321
C          7.14560        1.61919        3.38837
S          7.00871        2.19264        1.67319
C         10.64282        0.70565        0.60190
S         10.19244        1.22157       -0.96940
C         11.93401        0.04721        0.81307
N         12.17259       -0.69521        1.88087
C         13.45398       -1.12037        1.73167
C         13.99604       -0.62383        0.50032
C         15.40437       -1.06394        0.36349
O         16.19361       -0.85916       -0.52987
C         15.61106       -1.82113        1.61375
C         14.38738       -1.81637        2.37821
N         14.57940       -2.49494        3.54037
C         15.82849       -2.86414        3.46352
C         16.57627       -2.47187        2.25277
C         13.10436        0.11828       -0.14353
C         13.27027        0.83763       -1.36135
C         13.61398        0.22128       -2.50635
C         13.81057        0.90059       -3.74537
C         13.64010        0.40171       -5.03015
C         14.17329        1.28314       -6.02263
S         14.37644        0.79268       -7.70978
C         12.83627       -0.13135       -7.92589
C         12.90244       -1.41176       -7.11979
S         12.88374       -1.18160       -5.32270
C         14.55842        2.51823       -5.50830
S         14.41304        2.50859       -3.79786
C         15.12046        3.69607       -6.09873
C         14.71035        4.24524       -7.25181
C         15.73664        5.00593       -8.03739
O         16.63627        5.70334       -7.62224
C         15.49609        4.59137       -9.43806
C         16.38318        4.71854      -10.49222
C         16.11781        3.99433      -11.66259
C         14.96523        3.15343      -11.73422
C         14.76593        2.36045      -12.87084
C         15.66813        2.41684      -13.92643
C         16.77217        3.25688      -13.88335
C         16.99970        4.04257      -12.75311
F         15.46961        1.64246      -15.00077
C         14.05816        3.09439      -10.66174
C         14.31644        3.83267       -9.51822
C         13.65590        3.87294       -8.19208
C         12.33836        3.73428       -7.92219
C         11.80517        3.99859       -6.62645
N         11.35260        4.23256       -5.58417
C         11.40090        3.35067       -8.92122
N         10.66007        2.98883       -9.73796
H          1.04457       -1.38896       -1.62853
H         -1.02105        0.97967       -4.51881
H          0.92121        2.50294       -4.71939
H          3.37608       -0.89619       -1.06899
H          3.25760        3.13285       -4.03453
H          8.04572        3.30151       -1.83915
H          7.91806        0.04293        4.62357
H          7.64565       -0.45295        2.95423
H          7.49911        2.44198        4.02137
H          6.12290        1.39901        3.71396
H         16.34832       -3.44407        4.24215
H         17.60066       -2.65119        1.99827
H         13.08050        1.90508       -1.32281
H         13.75368       -0.85810       -2.51328
H         12.73682       -0.36536       -8.99094
H         11.97222        0.48433       -7.65073
H         13.78694       -1.99935       -7.39032
H         12.03223       -2.02818       -7.37153
H         16.02141        4.08886       -5.62399
H         17.29076        5.30374      -10.37194
H         13.92100        1.68136      -12.94698
H         17.45786        3.28513      -14.72576
H         17.87968        4.68256      -12.72555
H         13.21128        2.41636      -10.71649
