97

C         -4.43016       -1.97863        1.53019
C         -3.88888       -2.86714        0.65673
C         -3.23098       -4.05604        1.07525
N         -2.67625       -5.02141        1.40902
C         -3.97923       -2.69538       -0.75238
N         -4.04401       -2.53920       -1.89991
C         -4.48866       -2.11696        3.01783
C         -5.43013       -1.20103        3.50310
C         -5.71869       -1.02739        4.85103
C         -5.01060       -1.81912        5.78114
C         -4.06946       -2.74046        5.30298
C         -3.78745       -2.89882        3.92165
S         -3.33301       -3.60818        6.60121
C         -4.23112       -2.76487        7.77750
C         -5.07200       -1.83477        7.21481
C         -6.00009       -0.39845        2.41205
O         -6.90898        0.40020        2.51345
C         -5.20567       -0.76203        1.19130
C         -5.13033        0.06095        0.12883
C         -5.83518        1.35155       -0.00604
C         -7.10336        1.51396       -0.56884
C         -7.73595        2.81165       -0.70807
N         -8.98371        2.85988       -1.22380
C         -9.58531        1.70460       -1.63537
C         -8.96112        0.48745       -1.51469
N         -7.71787        0.38802       -0.98546
C         -9.56639       -0.75009       -1.90780
N        -10.06324       -1.75294       -2.21854
C        -10.90173        1.83536       -2.18713
N        -11.97649        1.89586       -2.62200
C         -7.09753        4.02537       -0.32622
C         -5.79971        3.87315        0.27852
C         -5.17484        2.51498        0.45058
N         -3.97231        2.54724        1.05339
S         -3.65813        4.12818        1.41296
N         -4.98130        4.83947        0.73317
C         -7.69656        5.39728       -0.49602
S         -7.40527        6.57319        0.72360
C         -8.29312        7.83454       -0.02701
C         -8.86913        7.36900       -1.20277
C         -8.51559        5.97462       -1.46581
C         -8.98534        5.30594       -2.64979
N         -9.38496        4.81187       -3.62238
C         -9.76967        8.15387       -2.11383
F         -9.98887        9.42870       -1.70358
F         -9.25326        8.23735       -3.36543
F        -10.98905        7.57001       -2.22214
C         -8.35292        9.13939        0.57778
C         -8.26951        9.30584        1.90789
C         -8.35206       10.57249        2.61600
C         -8.22605       10.71050        3.94840
C         -8.38343       11.94584        4.68024
C         -8.28148       11.80741        6.01304
C         -7.99716       10.44983        6.44821
S         -7.86309        9.39775        5.04021
C         -7.84546        9.99812        7.70977
C         -7.99412       10.74213        8.94612
C         -7.76065       10.01879       10.05506
C         -7.36793        8.64946        9.79188
S         -7.40420        8.33268        8.07563
C         -6.96327        7.76050       10.71929
C         -6.38741        6.45852       10.42602
C         -5.13071        6.12165       10.81282
C         -4.76072        4.96352       10.03227
C         -3.55887        4.38530        9.85359
C         -3.48027        3.41223        8.78136
C         -2.41264        2.81222        8.22337
C         -2.83996        2.01308        7.06096
C         -4.18924        2.06541        6.96800
C         -4.64327        2.97192        7.99590
C         -5.86258        3.48721        8.23640
C         -5.91615        4.54348        9.23054
C         -6.90008        5.40709        9.52465
C         -2.00816        1.27485        6.14026
C         -0.74365        1.60821        5.84902
H         -6.44484       -0.28651        5.17308
H         -3.02117       -3.60730        3.63005
H         -4.09819       -2.98496        8.82826
H         -5.71242       -1.18868        7.80382
H         -4.45153       -0.12662       -0.69657
H         -8.49250       10.00731       -0.06255
H         -8.15796        8.42886        2.54110
H         -8.55826       11.45152        2.00976
H         -8.58180       12.88718        4.18604
H         -8.38280       12.63475        6.70067
H         -8.27525       11.78540        8.97087
H         -7.81920       10.42111       11.05725
H         -6.93321        8.05546       11.76538
H         -4.45138        6.70891       11.40868
H         -2.66532        4.70142       10.37463
H         -1.38375        2.93281        8.52271
H         -4.81349        1.61522        6.21536
H         -6.73905        3.23629        7.65424
H         -7.87938        5.43227        9.07196
H         -2.45840        0.42130        5.63940
H         -0.25692        2.47190        6.29229
H         -0.16602        1.02985        5.13559
