95

C         -1.36715      -14.83715       14.65173
C         -0.93820      -15.57120       13.62336
C         -1.10906      -16.99109       13.47082
C         -0.47420      -17.49093       12.40028
C          0.26734      -16.49614       11.64322
S         -0.05092      -14.88373       12.29826
C          1.14477      -16.73357       10.64786
C          1.51363      -18.03005       10.10006
C          2.61532      -17.99652        9.33128
C          3.20420      -16.67868        9.23555
S          2.11930      -15.47846        9.90138
C          4.44523      -16.42576        8.78703
C          5.03468      -15.13563        8.92491
S          5.99983      -14.81704       10.31440
C          6.14331      -13.16596        9.92434
C          5.54163      -12.85608        8.72454
C          4.93289      -14.01134        8.11858
C          4.20748      -13.93457        6.80275
C          4.50202      -12.64118        6.00043
C          4.54112      -11.40242        6.92457
C          5.52988      -11.50108        8.08935
C          5.70514      -12.74328        5.05748
C          6.91908      -13.15811        5.46326
C          5.56640      -12.43428        3.58412
S          4.96746      -10.71791        3.28498
C          3.69815      -11.76681        2.72974
C          4.33308      -12.93868        2.88266
C          3.91060      -14.31115        2.50459
O          4.49395      -15.32538        2.89072
C          2.74146      -14.44618        1.53324
C          3.23173      -14.36494        0.11507
C          3.57194      -15.43481       -0.62504
C          4.03272      -15.34368       -1.97824
S          3.48986      -14.09301       -3.03772
C          4.36281      -14.70682       -4.35943
C          5.04279      -15.86148       -4.04885
C          4.89233      -16.20726       -2.65696
C          5.58651      -17.41104       -2.06538
C          6.73461      -17.96586       -2.94939
C          6.31958      -18.00081       -4.43795
C          5.87310      -16.65369       -5.01247
C          8.10786      -17.33064       -2.69131
C          9.15895      -18.08562       -2.32272
C          8.26465      -15.89378       -2.85894
C          8.61579      -14.98200       -1.93540
C          8.65506      -13.56434       -2.19770
C          9.00328      -12.83448       -1.12717
C          9.28912      -13.62794        0.05413
S          9.03988      -15.33768       -0.28948
C          9.66305      -13.16108        1.25946
C          9.79569      -11.76486        1.63858
C         10.08357      -11.57985        2.93545
C         10.22534      -12.81354        3.66505
S         10.03766      -14.19959        2.63656
C         10.41912      -12.92674        4.98090
H         -1.89785      -15.27917       15.48642
H         -1.17852      -13.76803       14.69382
H         -1.67752      -17.58703       14.17067
H         -0.47644      -18.54205       12.15134
H          0.97593      -18.93888       10.31879
H          3.06171      -18.87099        8.87784
H          5.07801      -17.22907        8.42270
H          6.67256      -12.50009       10.59154
H          3.13126      -13.95978        7.02058
H          4.42577      -14.81989        6.19264
H          3.61317      -12.51115        5.37301
H          3.53330      -11.26570        7.33971
H          4.75661      -10.49250        6.35275
H          5.26428      -10.74615        8.84027
H          6.54196      -11.25972        7.74466
H          7.73781      -13.26211        4.76381
H          7.14594      -13.42192        6.48924
H          6.49377      -12.62746        3.02688
H          2.71684      -11.52223        2.32327
H          1.98612      -13.67609        1.71918
H          2.24386      -15.40363        1.72855
H          3.30378      -13.36082       -0.29615
H          3.53011      -16.42685       -0.17882
H          4.32490      -14.19846       -5.31275
H          4.82711      -18.19863       -1.95722
H          5.95492      -17.18887       -1.05655
H          6.83234      -19.02225       -2.65065
H          5.47714      -18.70029       -4.53207
H          7.12729      -18.41401       -5.05432
H          5.30135      -16.83006       -5.93132
H          6.74180      -16.06402       -5.32118
H         10.13845      -17.65213       -2.13742
H          9.07448      -19.15744       -2.17215
H          8.03521      -15.51853       -3.84966
H          8.40658      -13.13964       -3.16312
H          9.07197      -11.75628       -1.14968
H          9.64248      -10.94543        0.95105
H         10.18102      -10.61118        3.40231
H         10.47714      -12.05873        5.62638
H         10.47232      -13.90333        5.45503
