105

C         -8.10741       -3.23890        9.91312
C         -7.09584       -3.77169        9.18408
C         -6.11848       -4.65380        9.73194
N         -5.31649       -5.36851       10.17071
C         -6.94031       -3.54362        7.78619
N         -6.80062       -3.37793        6.64643
C         -8.40615       -3.54594       11.35222
C         -9.68389       -3.07115       11.64884
C        -10.30261       -3.18760       12.88852
C         -9.58762       -3.83017       13.91856
C         -8.29720       -4.30573       13.64304
C         -7.68395       -4.16315       12.36932
S         -7.60693       -5.05893       15.03800
C         -8.98852       -4.76382       15.96173
C         -9.96652       -4.09350       15.27834
Br        -9.16569       -5.30288       17.74666
C        -10.27795       -2.39901       10.49385
O        -11.42015       -1.99109       10.45304
C         -9.21150       -2.35918        9.43607
C         -9.31185       -1.57150        8.35004
C        -10.40653       -0.65436        8.04454
C        -10.75670       -0.20553        6.82858
C        -11.88543        0.66093        6.56897
C        -12.16605        0.81296        5.26491
C        -11.29301        0.05080        4.39219
S         -9.99063       -0.68255        5.34237
C        -11.43211       -0.14205        3.06714
C        -12.38463        0.46827        2.16012
C        -12.33168       -0.01257        0.90558
C        -11.37516       -1.08913        0.73231
S        -10.44381       -1.28912        2.19242
C        -11.28163       -1.86062       -0.36743
C        -10.44294       -3.01898       -0.47117
C         -9.20322       -3.30132        0.10326
C         -8.83334       -4.64384       -0.07736
C         -9.69889       -5.30443       -0.92194
S        -10.98231       -4.38151       -1.43771
C         -9.21679       -6.62170       -1.12182
C         -8.06121       -6.79056       -0.38591
C         -7.68574       -5.53231        0.39728
C         -6.33149       -4.97284       -0.03624
C         -7.73192       -5.76506        1.91209
C         -7.50194       -8.06745       -0.57383
C         -8.26845       -8.85165       -1.43577
S         -9.64998       -7.94537       -2.02700
C         -8.09325      -10.19492       -1.89673
C         -7.54357      -11.19244       -1.18462
C         -7.45823      -12.56272       -1.64808
C         -7.18355      -13.44191       -0.67104
C         -7.06443      -12.82130        0.63620
S         -6.94991      -11.08299        0.45198
C         -7.19753      -13.42102        1.83209
C         -7.48232      -14.82264        2.06226
C         -8.01052      -15.06157        3.27191
C         -8.15736      -13.86740        4.07402
S         -7.29223      -12.53694        3.35626
C         -8.91440      -13.78335        5.17702
C         -9.14035      -12.60166        5.97929
C         -9.70593      -11.42649        5.65971
C        -10.34537      -10.81845        4.46979
C        -10.94829      -11.44452        3.43248
C        -11.46063      -10.76066        2.28614
N        -11.88364      -10.23292        1.34588
C        -11.22447      -12.84171        3.42242
N        -11.52261      -13.96321        3.39942
C        -10.37612       -9.33447        4.72247
C         -9.87950       -9.08554        6.00529
C         -9.49930      -10.33490        6.66862
O         -9.10554      -10.43153        7.81371
C         -9.85054       -7.83494        6.61710
C        -10.47586       -6.76895        5.93859
C        -10.99713       -7.00507        4.65851
C        -10.90771       -8.26350        4.01079
S        -11.80064       -5.60384        4.04691
C        -11.61391       -4.79699        5.51565
C        -10.76727       -5.43381        6.38321
Br       -12.56384       -3.24758        5.94703
H        -11.30051       -2.78838       13.04964
H         -6.67491       -4.53717       12.24438
H        -10.91867       -3.80671       15.70892
H         -8.51237       -1.54531        7.61565
H        -11.00428       -0.31481        8.88808
H        -12.47056        1.10239        7.36434
H        -13.00730        1.38575        4.90214
H        -13.05755        1.25811        2.46181
H        -12.96034        0.33818        0.09812
H        -11.94922       -1.66295       -1.20294
H         -8.62568       -2.60211        0.69266
H         -6.27548       -4.85568       -1.12511
H         -5.51381       -5.63663        0.26549
H         -6.15059       -3.98826        0.40990
H         -8.67304       -6.23157        2.22763
H         -7.63483       -4.82190        2.46279
H         -6.91913       -6.42612        2.23559
H         -6.58313       -8.39226       -0.10432
H         -8.50198      -10.42752       -2.87785
H         -7.64580      -12.84387       -2.67552
H         -7.12669      -14.50921       -0.82892
H         -7.34602      -15.58698        1.31140
H         -8.35092      -16.03322        3.60218
H         -9.40737      -14.68095        5.54901
H         -8.73681      -12.72395        6.98800
H         -9.45864       -7.72036        7.62374
H        -11.34783       -8.35340        3.02590
H        -10.48659       -5.03957        7.35138
