96

C          1.03764       -8.76673        3.05212
C          1.94077       -9.69581        2.54294
F          2.76359      -10.33515        3.38507
C          2.00037       -9.95286        1.18031
F          2.89625      -10.82387        0.69673
C          1.14278       -9.30188        0.30190
C          0.23487       -8.35238        0.78947
C          0.18517       -8.06601        2.18808
C         -0.69329       -7.07797        2.68576
C         -1.47532       -6.34686        1.80259
C         -1.40674       -6.66768        0.44148
C         -0.60178       -7.66244       -0.08677
C         -2.28346       -5.78367       -0.32552
O         -2.14784       -5.53133       -1.50497
C         -3.19763       -5.15471        0.67968
C         -2.46488       -5.23680        1.96889
C         -2.53616       -4.38467        3.01947
C         -3.46391       -3.30580        3.06857
N         -4.23918       -2.44412        3.11785
C         -1.63822       -4.45773        4.12342
N         -0.89460       -4.51949        5.01204
C         -4.46994       -4.79651        0.43195
N         -5.31952       -4.91529       -0.66025
C         -5.18874       -5.62499       -1.82126
S         -4.56925       -7.24612       -1.86053
C         -4.38861       -7.18698       -3.54023
N         -3.58562       -8.16268       -4.22173
O         -3.75107       -8.25163       -5.44602
O         -2.78084       -8.83042       -3.55641
C         -5.15783       -6.19330       -4.09965
C         -5.65579       -5.29293       -3.09502
C         -6.48164       -4.16377       -3.43150
C         -6.47901       -2.96972       -2.81729
C         -7.39372       -1.94929       -3.18435
S         -6.96813       -0.79588       -4.37014
C         -8.45847        0.09013       -4.21230
C         -9.26558       -0.53867       -3.25456
C         -8.63096       -1.66680       -2.65211
O         -9.18035       -2.43022       -1.68007
O        -10.54115       -0.11797       -3.03557
C        -11.19614       -0.62350       -1.88043
C         -8.58781        1.25223       -5.07125
C         -9.28137        2.37139       -4.80311
C         -9.30922        3.59415       -5.59486
C         -9.77907        4.66322       -4.91645
C        -10.10481        4.34383       -3.53853
S        -10.18744        2.62042       -3.36203
C        -10.30592        5.13250       -2.47102
C        -10.43766        6.56639       -2.42693
C        -10.66555        7.04043       -1.19239
C        -10.61764        6.03432       -0.15534
S        -10.39271        4.45888       -0.83083
C        -10.72682        6.15891        1.17219
C        -11.02733        7.34054        1.94148
C        -10.34634        8.49161        2.01957
C        -10.60797        9.71090        2.83499
C        -11.54601        9.87844        3.79137
C        -11.68916       11.08567        4.53655
N        -11.82191       12.06722        5.14334
C        -12.47478        8.87513        4.18280
N        -13.24320        8.06497        4.51942
C         -9.56784       10.71679        2.42406
C         -8.69705       10.12031        1.51458
C         -9.09019        8.74527        1.23348
O         -8.46907        8.02230        0.48169
C         -7.59867       10.74349        0.93312
C         -7.35065       12.08218        1.28473
C         -8.22129       12.70954        2.18726
C         -9.33586       12.04535        2.76564
S         -7.74311       14.34637        2.46716
C         -6.43156       14.21134        1.41327
C         -6.30923       12.96927        0.85258
Br        -5.26337       15.62667        1.04227
H          1.02947       -8.58573        4.12373
H          1.21290       -9.52543       -0.75982
H         -0.72223       -6.89970        3.75671
H         -0.62521       -7.87229       -1.15368
H         -5.04135       -4.31932        1.22533
H         -6.14483       -4.32274       -0.57876
H         -5.30060       -6.07444       -5.16836
H         -7.15674       -4.31241       -4.27609
H         -5.79952       -2.73716       -2.00517
H         -9.05128       -3.37100       -1.88104
H        -12.15472       -0.10401       -1.78278
H        -10.63377       -0.43954       -0.95627
H        -11.42638       -1.68382       -2.01395
H         -7.97528        1.25666       -5.97086
H         -8.95270        3.63776       -6.61544
H         -9.83810        5.66322       -5.32251
H        -10.40050        7.18735       -3.30906
H        -10.81419        8.08625       -0.97817
H        -10.66221        5.25518        1.78444
H        -11.91486        7.15607        2.53274
H         -6.96412       10.20674        0.23234
H         -9.96112       12.60614        3.44788
H         -5.52685       12.69081        0.15640
