85

C         -2.51716       -0.66964       -2.12405
C         -1.26580       -0.15403       -2.06306
C         -0.10630       -0.92274       -2.36244
N          0.83671       -1.55321       -2.61614
C         -1.02236        1.22198       -1.77739
N         -0.83127        2.33979       -1.53488
C         -2.88593       -2.05792       -2.55264
C         -4.22300       -2.03630       -2.94836
C         -4.94747       -3.14722       -3.35861
C         -4.27113       -4.38204       -3.40226
C         -2.91559       -4.42180       -3.03633
C         -2.20492       -3.27002       -2.59526
S         -2.28636       -6.02539       -3.20026
C         -3.77592       -6.63099       -3.71619
C         -4.75777       -5.68026       -3.77572
Br        -4.06011       -8.42742       -4.16497
C         -4.75834       -0.67816       -2.85886
O         -5.69843       -0.27982       -3.51102
C         -3.80009        0.07887       -1.99075
C         -4.10781        1.07358       -1.13401
C         -5.41038        1.61349       -0.85916
C         -6.67958        1.20386       -1.19321
C         -7.75924        1.99764       -0.66979
C         -9.15783        1.63201       -1.07398
C         -7.29063        3.00264        0.18305
S         -5.55053        3.02853        0.10714
C         -7.97671        4.03349        1.03903
C         -7.48852        4.50706        2.29871
C         -8.15307        5.55318        3.05749
N         -7.61797        5.97745        4.22665
C         -6.47434        5.41648        4.68878
C         -5.83755        4.43282        3.98464
N         -6.35180        3.97014        2.81429
C         -4.60579        3.85079        4.42648
N         -3.60020        3.42068        4.82538
C         -6.03007        5.86310        5.97971
N         -5.67950        6.18225        7.03348
C         -9.35558        6.16314        2.63800
C         -9.90035        5.68390        1.41136
C         -9.18731        4.63765        0.59080
N         -9.82339        4.41388       -0.56928
S        -11.20479        5.30183       -0.59984
N        -11.06535        6.06030        0.84960
C        -10.05474        7.24535        3.38969
C        -10.11886        7.50336        4.74866
C        -10.87619        8.68471        5.09733
C        -10.96003        9.18690        6.50630
C        -11.47694        9.25352        3.98007
S        -10.86280        8.50839        2.55604
C        -12.29302       10.42549        3.85501
C        -13.28754       10.58493        2.96432
C        -13.94817        9.69238        2.00249
C        -14.54174        8.50922        2.29216
C        -15.26194        7.73648        1.33538
N        -15.84925        7.10222        0.55822
C        -14.66407        8.07053        3.64824
N        -14.85831        7.76214        4.74456
C        -14.24484       10.51074        0.79850
C        -14.18559       11.85644        1.18072
C        -13.65212       11.98135        2.55641
O        -13.48263       13.00927        3.17680
C        -14.56300       12.90228        0.34885
C        -15.03207       12.57436       -0.94608
C        -15.01814       11.22931       -1.35233
C        -14.60071       10.17796       -0.50127
S        -15.59300       11.06052       -2.97301
C        -15.92497       12.71006       -3.09371
C        -15.56873       13.42003       -1.97823
Br       -16.70905       13.48685       -4.60721
H         -5.99735       -3.05973       -3.62418
H         -1.16605       -3.37820       -2.30272
H         -5.77863       -5.88065       -4.07980
H         -3.31834        1.47910       -0.50448
H         -6.89326        0.34393       -1.80836
H         -9.15951        0.70822       -1.66871
H         -9.58548        2.38308       -1.74129
H         -9.80346        1.46328       -0.21034
H         -9.61736        6.89575        5.49408
H        -11.51169        8.48220        7.13548
H        -11.44593       10.16436        6.57178
H         -9.94988        9.29605        6.91961
H        -11.97058       11.28845        4.43770
H        -14.52514       13.93072        0.69711
H        -14.60775        9.15683       -0.86848
H        -15.70147       14.49061       -1.87756
