93

C          0.41014        1.84521       -2.03517
C          1.48128        0.79308       -1.74719
C          0.79321        2.69221       -3.25259
C          0.04458        2.65979       -0.82753
C         -1.25302        2.45887       -0.54033
C         -1.81188        1.53394       -1.50890
C         -3.05989        1.04277       -1.66091
C         -4.15032        1.37715       -0.81639
N         -5.05444        1.64310       -0.14007
C         -3.32873        0.14178       -2.73232
N         -3.54937       -0.58723       -3.60984
O         -0.80437        1.13823       -2.39478
C         -1.95566        3.06516        0.53149
N         -2.53020        3.59426        1.39077
C          0.88623        3.47665       -0.02623
S          1.00074        5.16927       -0.32351
C          2.13222        5.27248        0.98415
N          2.38231        4.09997        1.53261
N          1.65318        3.07249        0.96429
C          2.66605        6.54484        1.31856
C          3.88182        6.69788        1.86414
C          4.41652        7.98576        2.22224
N          4.53398        9.08234        1.35626
C          4.24893        9.13189       -0.06219
C          5.44889        8.75913       -0.91429
C          5.04421       10.21750        2.02360
O          5.28746       11.32847        1.59932
C          5.20307        9.73482        3.40000
C          4.81552        8.35330        3.44515
C          4.95142        7.89917        4.84264
O          4.73071        6.78734        5.27479
N          5.36803        9.07129        5.51415
C          5.60445        9.11010        6.94755
C          4.33470        8.86534        7.74963
C          5.52933       10.13335        4.62698
C          5.91343       11.44915        5.03106
C          6.95414       12.11876        4.51061
C          7.32188       13.46692        4.94938
C          6.35404       14.38407        5.35839
C          6.74159       15.65887        5.77887
N          5.66553       16.53453        6.21335
O          4.99380       16.15820        7.18315
O          5.47276       17.57067        5.56306
C          8.09039       16.06368        5.80830
C          9.04427       15.14261        5.35541
C          8.66409       13.86274        4.92894
C          8.49866       17.40914        6.23794
C          9.64516       17.76731        6.83281
C          9.93144       19.11507        7.29937
C         10.79030       19.43319        8.28391
C         10.81741       20.86924        8.45476
C         11.47482       21.65760        9.32850
C         12.34859       21.16156       10.33024
N         13.07062       20.77045       11.15421
C         11.30159       23.07291        9.26522
N         11.16556       24.22157        9.21360
O          9.97636       21.45563        7.50407
C          9.35659       20.39312        6.72741
C          7.84607       20.59736        6.90039
C          9.78280       20.62955        5.27475
C         11.52717       18.48652        9.04606
N         12.11374       17.67960        9.63935
H          2.44467        1.24882       -1.49632
H          1.62397        0.14066       -2.61679
H          1.18028        0.13996       -0.91970
H          1.77372        3.16401       -3.13652
H          0.05108        3.47749       -3.44030
H          0.81234        2.07298       -4.15822
H          2.04967        7.41608        1.11589
H          4.49485        5.83167        2.11835
H          3.94831       10.15678       -0.31238
H          3.39869        8.49395       -0.30730
H          6.28118        9.45013       -0.74629
H          5.18133        8.80079       -1.97515
H          5.79756        7.74702       -0.68777
H          6.03277       10.07484        7.23955
H          6.34371        8.33853        7.18765
H          3.56651        9.60664        7.50667
H          4.54419        8.92352        8.82223
H          3.91898        7.87406        7.54462
H          5.29781       11.88343        5.81516
H          7.58484       11.66924        3.74585
H          5.29802       14.12140        5.35307
H         10.10087       15.40141        5.32127
H          9.43724       13.17344        4.59240
H          7.73537       18.15082        6.07719
H         10.40065       17.00890        7.03665
H          7.53233       20.37075        7.92523
H          7.24445       19.99986        6.21350
H          7.57223       21.64071        6.70869
H         10.87215       20.55542        5.16702
H          9.51575       21.64401        4.95546
H          9.31999       19.91657        4.58580
