104

C         11.65227        5.57749        1.10238
C         12.34630        6.63826        0.57829
S         11.43281        7.40144       -0.68184
C         10.13971        6.30998       -0.49319
Cl         8.74428        6.46779       -1.47440
C         10.39128        5.39887        0.48790
C          9.64723        4.31335        1.04838
O          8.50753        3.97299        0.78977
C         10.60865        3.71536        2.09047
C         11.84924        4.58873        2.14439
C         12.91097        4.51779        2.98294
C         13.99707        5.43731        2.90601
N         14.88634        6.18000        2.84410
C         13.04227        3.54803        4.01283
N         13.16788        2.76074        4.85470
C         10.31649        2.57636        2.76383
C          9.10148        1.73038        2.63320
C          8.57325        1.28704        1.41053
C          9.27222        1.31738        0.11760
O         10.45673        1.57390       -0.01628
S          8.22265        0.87065       -1.19634
C          6.93108        0.45147       -0.09496
O          5.91213       -0.10641       -0.45624
C          7.27514        0.76154        1.30263
C          6.46323        0.57746        2.43430
C          7.12250        0.73859        3.65777
C          8.38028        1.30438        3.75086
C          8.73873        1.32965        5.15870
O          9.78488        1.71712        5.63262
O          7.69796        0.78474        5.83239
C          6.70155        0.37934        5.00895
O          5.69963       -0.22092        5.34329
C          5.02018        0.29152        2.34328
C          4.13867        0.92524        3.13490
C          2.71161        0.82279        3.08594
N          1.95824       -0.34044        3.22904
C          2.44544       -1.64387        3.63311
C          2.37539       -1.81137        5.14634
C          0.57352       -0.05500        3.27952
O         -0.36491       -0.81445        3.42376
C          0.53755        1.41699        3.19064
C          1.88998        1.87267        3.04123
C          1.89008        3.33542        2.97834
O          2.85906        4.05855        2.86051
N          0.52303        3.64690        3.13381
C          0.07106        5.02205        3.14175
C          0.47998        5.75263        4.41264
C         -0.25887        2.48979        3.26651
C         -1.66242        2.51001        3.56074
C         -2.50692        1.51319        3.24396
C         -3.93760        1.58346        3.49453
C         -4.54033        1.22118        4.70274
C         -3.85591        0.83955        5.94811
O         -2.67195        0.99077        6.17836
S         -4.98957        0.22595        7.12874
C         -6.34588        0.79774        6.19062
O         -7.47456        0.89802        6.63403
C         -5.93478        1.19125        4.83370
C         -6.79080        1.52226        3.76611
C         -6.16255        1.93070        2.58213
C         -4.79172        1.96359        2.46155
C         -4.46017        2.40645        1.11663
O         -3.35683        2.57446        0.64328
O         -5.64166        2.60728        0.49214
C         -6.70440        2.31830        1.28180
O         -7.86603        2.36793        0.94165
C         -8.24028        1.31564        3.86297
C         -9.14881        2.22827        3.49335
C        -10.55677        1.92163        3.44407
C        -11.59010        2.71092        3.77436
C        -12.91013        1.97948        3.98768
O        -13.28339        0.92989        3.50198
C        -13.54245        2.80025        4.98239
C        -14.68522        2.70476        5.71497
S        -14.83834        4.00420        6.80897
C        -13.35667        4.72813        6.27471
C        -12.79746        3.97468        5.27838
C        -11.65680        4.06104        4.39606
C        -10.97247        5.18300        4.07621
C        -11.11798        6.38436        4.82451
N        -11.20873        7.35298        5.45692
C        -10.12991        5.28962        2.93367
N         -9.45000        5.42426        2.00389
Cl       -15.89385        1.49297        5.65667
H         13.31629        7.04979        0.82211
H         10.99473        2.19425        3.51956
H          4.66272       -0.35650        1.54695
H          4.47306        1.64888        3.87760
H          3.46305       -1.80550        3.27287
H          1.80680       -2.40421        3.16636
H          2.98154       -1.05513        5.65506
H          2.73424       -2.80115        5.44142
H          1.34684       -1.70377        5.50943
H         -1.01249        5.07453        3.00381
H          0.52971        5.52511        2.28251
H          0.06699        5.26335        5.30017
H          0.12432        6.78725        4.38806
H          1.56939        5.77727        4.52368
H         -2.04410        3.39466        4.06100
H         -2.17110        0.62025        2.72269
H         -8.56356        0.35388        4.26161
H         -8.81624        3.18524        3.11913
H        -10.77080        0.88297        3.17286
H        -13.02896        5.65159        6.73307
