102

C         -1.53007       -1.76045        0.31022
N         -1.88191       -1.06557        1.46002
C         -1.95038       -1.65905        2.78603
C         -2.36818       -0.72368        3.91605
C         -2.11536        0.29458        1.18535
O         -2.40399        1.18366        1.94875
C         -1.90465        0.38122       -0.27771
C         -1.53162       -0.92847       -0.73138
C         -1.27490       -0.85111       -2.17770
O         -0.87631       -1.76194       -2.87259
N         -1.57631        0.49887       -2.48612
C         -1.35319        1.09053       -3.80028
C         -1.57698        0.16050       -4.98396
C         -1.91072        1.21504       -1.32242
C         -2.18487        2.63599       -1.31076
C         -2.49648        3.32376       -0.20303
C         -2.75017        4.74354       -0.09151
C         -3.32607        5.50016       -1.07255
N         -3.56801        6.80399       -0.91775
C         -3.25464        7.37835        0.25216
N         -2.74528        6.71681        1.29568
C         -2.50457        5.40834        1.09716
C         -3.51280        8.81546        0.35400
N         -3.25238        9.68506        1.43195
C         -2.70919        9.29326        2.72487
C         -1.87863       10.36017        3.42611
C         -3.74412       10.97923        1.15574
O         -3.79933       11.98135        1.83745
C         -4.21990       10.86177       -0.22351
C         -4.06017        9.50955       -0.64954
C         -4.55405        9.40497       -2.03597
O         -4.60725        8.41477       -2.73437
N         -4.91870       10.73770       -2.34109
C         -5.42967       11.15038       -3.64254
C         -5.49024       10.06603       -4.71637
C         -4.72744       11.56811       -1.23225
C         -4.96431       12.98449       -1.17548
C         -4.27078       13.85071       -1.92280
C         -4.42404       15.29262       -1.84376
C         -3.90837       16.10702       -0.85695
N         -4.07934       17.45207       -0.82823
C         -4.71511       17.99684       -1.87969
N         -5.15143       17.29624       -2.93407
C         -5.06499       15.95846       -2.85684
C         -5.04002       19.42471       -1.85873
N         -6.23018       20.05451       -2.28341
C         -7.50526       19.52667       -2.73754
C         -7.75446       18.03736       -2.83773
C         -6.13130       21.46293       -2.13918
O         -6.95492       22.31556       -2.40664
C         -4.79030       21.65864       -1.56235
C         -4.18480       20.36137       -1.43149
C         -2.82917       20.54856       -0.89133
O         -1.98766       19.70401       -0.66702
N         -2.74953       21.94975       -0.73283
C         -1.56199       22.56684       -0.17843
C         -1.61268       22.66565        1.33778
C         -3.93505       22.58612       -1.11903
C         -4.10588       24.01592       -1.08096
C         -5.27224       24.65274       -0.91351
H         -1.29132       -2.80966        0.32287
H         -0.95863       -2.07124        3.01102
H         -2.66042       -2.49165        2.73055
H         -1.64753        0.09316        4.04263
H         -2.42238       -1.26155        4.86573
H         -3.35486       -0.28536        3.72715
H         -0.32695        1.47724       -3.81968
H         -2.03689        1.93318       -3.93169
H         -0.82575       -0.63265       -5.02283
H         -1.49959        0.72064       -5.92138
H         -2.56881       -0.30086       -4.94013
H         -2.10182        3.17421       -2.24931
H         -2.57069        2.84789        0.75823
H         -3.63547        5.08959       -2.02835
H         -2.09161        4.89005        1.95997
H         -2.03653        8.44329        2.59714
H         -3.54667        8.98560        3.35943
H         -1.03499       10.66909        2.80037
H         -1.48074        9.96516        4.36641
H         -2.46694       11.24617        3.67414
H         -4.78158       11.94960       -4.01372
H         -6.43415       11.56302       -3.49309
H         -4.51552        9.58431       -4.85487
H         -5.78030       10.48930       -5.68161
H         -6.22485        9.29549       -4.45646
H         -5.65223       13.32700       -0.39989
H         -3.55672       13.50281       -2.66461
H         -3.31671       15.70501       -0.03762
H         -5.57645       15.42532       -3.65464
H         -7.70436       19.97567       -3.71918
H         -8.26679       19.94024       -2.06391
H         -7.24087       17.62740       -3.71098
H         -8.81312       17.82301       -3.00704
H         -7.46215       17.51480       -1.92226
H         -1.40278       23.55135       -0.62689
H         -0.69726       21.95246       -0.45657
H         -2.47093       23.25752        1.67047
H         -0.70138       23.14039        1.71571
H         -1.69160       21.67335        1.79449
H         -3.21517       24.62641       -1.19968
H         -6.21586       24.12910       -0.79423
H         -5.31623       25.73752       -0.90559
