88

C         -5.70110        2.34460        0.01877
C         -6.16460        3.03620        1.13452
F         -6.60983        4.29142        0.98775
C         -6.17943        2.43235        2.38348
F         -6.65282        3.09501        3.44750
C         -5.71042        1.13311        2.54455
C         -5.23235        0.41677        1.43711
C         -5.24555        1.02339        0.14415
C         -4.83360        0.29111       -0.99136
C         -4.41007       -1.02329       -0.84736
C         -4.37492       -1.57362        0.44047
C         -4.76706       -0.89341        1.58236
C         -3.95423       -2.97763        0.37609
O         -3.49741       -3.61785        1.29881
C         -4.09797       -3.36885       -1.06757
C         -4.02340       -2.09069       -1.81806
C         -3.53547       -1.90423       -3.06763
C         -3.06459       -2.98670       -3.86567
N         -2.69687       -3.87568       -4.51227
C         -3.39162       -0.61324       -3.64866
N         -3.28426        0.44436       -4.11581
C         -4.43643       -4.59157       -1.51888
C         -4.72946       -5.72150       -0.68527
C         -5.34404       -5.78632        0.56161
F         -5.77464       -4.75033        1.22836
C         -5.56470       -7.10768        0.99800
C         -5.13493       -7.99112        0.05623
S         -4.37356       -7.33169       -1.29881
C         -5.43527       -9.31425        0.30222
C         -6.07471       -9.58377        1.47943
S         -6.25548       -8.05743        2.26254
C         -6.35082      -10.96705        1.58225
F         -6.95548      -11.51133        2.60426
C         -5.96221      -11.66164        0.44535
S         -5.15165      -10.62693       -0.71255
C         -6.12735      -13.08627        0.12839
C         -6.16925      -14.08096        1.09761
N         -6.31576      -15.39995        0.80313
C         -6.43095      -15.71454       -0.51138
C         -6.40144      -14.71889       -1.48129
N         -6.25146      -13.39958       -1.18644
C         -6.58527      -17.14111       -0.82447
C         -7.23035      -17.73848       -1.89928
F         -7.86323      -17.08201       -2.83303
C         -7.10494      -19.14781       -1.88443
C         -6.42657      -19.53989       -0.77015
S         -5.87717      -18.32209        0.25530
C         -6.24155      -20.89165       -0.62143
C         -6.64688      -21.68291       -1.65275
S         -7.46186      -20.61065       -2.73617
C         -6.21464      -23.01580       -1.43562
F         -6.41320      -23.98615       -2.28708
C         -5.45540      -23.14131       -0.27214
S         -5.56992      -21.67512        0.70079
C         -4.74192      -24.28302        0.22640
C         -3.62688      -24.22778        0.97758
C         -3.18192      -25.45576        1.72253
O         -3.47723      -26.61044        1.50050
C         -2.35582      -24.95887        2.84472
C         -1.74904      -25.71298        3.83490
C         -1.02890      -25.03740        4.83215
C         -1.02158      -23.60943        4.85884
C         -0.32771      -22.93981        5.87666
C          0.39153      -23.66306        6.82099
C          0.41616      -25.04967        6.77631
C         -0.29882      -25.74100        5.80165
F          1.13895      -25.73826        7.66986
F          1.07789      -23.00500        7.76511
C         -1.66595      -22.88020        3.84560
C         -2.26005      -23.56108        2.79397
C         -2.79480      -23.12377        1.48146
C         -2.31492      -22.06765        0.77667
C         -2.55556      -21.91297       -0.62319
N         -2.74929      -21.77782       -1.75375
C         -1.49097      -21.06495        1.35286
N         -0.83202      -20.23745        1.83693
H         -5.71247        2.85032       -0.94346
H         -5.73942        0.68948        3.53650
H         -4.89801        0.76465       -1.96669
H         -4.74861       -1.39567        2.54652
H         -4.59474       -4.75286       -2.58435
H         -6.07527      -13.86234        2.15591
H         -6.48445      -14.93958       -2.54062
H         -5.18187      -25.25893        0.00965
H         -1.81482      -26.79752        3.80797
H         -0.31101      -21.85398        5.93282
H         -0.25498      -26.82669        5.79852
H         -1.65378      -21.79421        3.88464
