94

C          3.11599        1.28955        5.81592
C          4.49410        1.85054        6.12007
O          4.88710        2.17359        7.23286
O          5.27276        1.95891        4.96912
C          4.46475        1.50097        3.94401
C          3.20123        1.09236        4.35705
C          2.26549        0.60714        3.45982
C          2.66154        0.56517        2.13392
C          3.91980        0.98810        1.71490
C          4.86233        1.45756        2.61928
C          3.98920        0.83724        0.23932
C          2.59010        0.26132       -0.05218
O          2.16189       -0.04129       -1.15946
O          1.84341        0.11166        1.11572
C          4.21383        2.14248       -0.48266
C          4.32869        2.25554       -1.81801
C          4.48633        3.53190       -2.51928
C          5.13965        4.63757       -2.00423
N          5.28195        5.81401       -2.65422
C          4.73504        5.88797       -3.87998
N          4.09497        4.87489       -4.47899
C          4.00583        3.71548       -3.79875
C          4.83415        7.15031       -4.61900
N          4.87105        8.45078       -4.07272
C          4.89535        8.74911       -2.64408
C          4.24147       10.06523       -2.24825
C          5.03339        9.41845       -5.08680
O          5.16825       10.62276       -5.01753
C          5.02214        8.61367       -6.32371
C          4.91025        7.23327       -5.95415
C          4.95312        6.43262       -7.18791
O          4.96276        5.22154       -7.29346
N          5.03282        7.41663       -8.20318
C          5.15457        7.03464       -9.59674
C          3.97770        6.26036      -10.16395
C          5.11744        8.70614       -7.65565
C          5.23052        9.95169       -8.36969
C          5.85067       10.18568       -9.53668
C          5.85973       11.48185      -10.20094
N          5.94084       11.46488      -11.53989
C          5.92007       12.66403      -12.14836
C          5.85313       13.84888      -11.46202
C          5.79791       13.74933      -10.09115
N          5.78559       12.57686       -9.43275
C          5.72050       14.93975       -9.25705
C          6.80983       15.55867       -8.76670
C          6.81448       16.81855       -7.93417
C          5.41366       17.41664       -7.68152
O          4.50703       16.88141       -7.05591
O          5.26734       18.65647       -8.30072
C          6.50154       18.93273       -8.85542
C          7.46358       17.94925       -8.64774
C          8.76945       18.11323       -9.09023
C          9.03649       19.28099       -9.78450
C          8.05642       20.23289      -10.04253
C          6.76387       20.09039       -9.56340
C          8.65898       21.31262      -10.85787
C         10.12018       20.83224      -10.93051
O         11.03853       21.41938      -11.48827
O         10.28391       19.60166      -10.28902
C          8.05236       21.41307      -12.23383
C          7.00611       22.19238      -12.54334
H          2.35243        2.02674        6.07545
H          2.97745        0.34210        6.34158
H          1.27760        0.28469        3.76747
H          5.84936        1.78482        2.31381
H          4.74301        0.08503       -0.01793
H          4.25387        3.03502        0.13912
H          4.24136        1.37105       -2.45036
H          5.59155        4.62147       -1.01869
H          3.50712        2.91665       -4.34087
H          5.94045        8.73768       -2.31522
H          4.35306        7.96618       -2.10676
H          4.81824       10.92430       -2.60050
H          4.18265       10.14113       -1.15723
H          3.22694       10.13725       -2.65238
H          6.07342        6.44685       -9.70198
H          5.24093        7.90658      -10.23217
H          3.83177        5.30191       -9.66210
H          4.16188        6.06113      -11.22617
H          3.05399        6.84231      -10.08832
H          4.76941       10.80116       -7.85919
H          6.38681        9.43249      -10.09512
H          5.95255       12.63807      -13.23297
H          5.83731       14.80405      -11.97439
H          4.70691       15.27309       -9.05338
H          7.78962       15.12973       -8.97488
H          7.29884       16.65993       -6.96471
H          9.53910       17.36997       -8.91697
H          5.99482       20.83311       -9.74085
H          8.63781       22.26220      -10.31215
H          8.50455       20.81622      -13.02554
H          6.50838       22.80909      -11.80129
H          6.61266       22.21531      -13.55601
