117

C        -10.62730       -0.81439       -0.20657
C        -10.66249       -1.16489       -1.51109
C        -11.75927       -1.88664       -2.06435
N        -12.67242       -2.45187       -2.50250
C         -9.66771       -0.71341       -2.42664
N         -8.83220       -0.36400       -3.15069
C        -11.66497       -1.08245        0.83358
C        -11.61671       -0.01788        1.74017
C        -12.29391        0.00717        2.94808
C        -13.06277       -1.13129        3.27891
C        -13.18833       -2.16643        2.33714
C        -12.50297       -2.16018        1.09079
S        -14.24182       -3.40468        2.92537
C        -14.41898       -2.64758        4.44250
C        -13.74351       -1.45232        4.50224
C        -10.63355        0.97356        1.27506
O        -10.71696        2.17697        1.37957
C         -9.71998        0.18557        0.40009
C         -8.37517        0.21966        0.42078
C         -7.47445        1.02825        1.24118
C         -6.49454        1.87162        0.81898
N         -6.33894        2.33139       -0.53664
O         -5.19173        2.63783       -0.88973
O         -7.35752        2.46431       -1.22510
C         -5.70568        2.42186        1.90437
C         -6.25308        2.02872        3.06118
C         -7.36442        1.13730        2.72607
C         -8.27212        0.71310        3.61867
C         -8.40415       -0.70401        3.95274
C         -8.98090       -0.76866        5.16657
C         -9.25966        0.58113        5.61946
N         -9.97631        0.87087        6.84298
O        -10.79053        0.01292        7.21449
O         -9.73925        1.92080        7.45078
C         -8.81777        1.50139        4.73845
C         -8.91777        2.93611        4.84321
C         -9.38923        3.84124        3.96648
C         -9.42286        5.26630        4.24209
N        -10.04177        6.23907        3.42440
C        -10.70537        6.06186        2.14469
C        -12.12929        6.61747        2.13439
C         -9.92319        7.53959        3.97761
O        -10.27410        8.60076        3.56667
C         -9.22078        7.27024        5.23718
C         -8.90416        5.87897        5.31967
C         -8.15667        5.69593        6.58768
O         -7.62987        4.69425        7.02792
N         -8.14966        6.97956        7.16021
C         -7.48814        7.16975        8.43323
C         -8.43498        7.00589        9.61540
C         -8.80304        7.89354        6.33831
C         -8.98276        9.29691        6.53603
C         -8.78723        9.97433        7.66551
C         -8.75647       11.37980        7.62327
S        -10.16154       12.30569        7.98624
C         -9.31422       13.83822        7.92290
C         -8.02108       13.55025        7.51708
C         -7.67704       12.18289        7.36117
C         -6.38902       11.73836        6.97637
C         -5.42914       12.78637        6.81352
C         -4.00152       12.48534        6.41315
F         -3.77273       11.16916        6.17262
F         -3.63870       13.14398        5.27950
F         -3.11427       12.85689        7.37408
C         -5.77716       14.15171        6.97527
C         -4.80996       15.20739        6.82720
N         -4.06153       16.08749        6.73956
C         -7.09095       14.53085        7.25818
C        -10.05651       15.02137        8.31083
C         -9.58687       16.15291        8.89483
C         -8.25985       16.62604        9.30766
C         -7.32740       17.31651        8.58946
C         -6.02505       17.53178        9.14195
N         -4.97745       17.57136        9.63937
C         -7.49790       17.64834        7.20149
N         -7.61910       17.76037        6.05394
C         -8.38524       16.94463       10.74779
C         -9.70567       17.34631       10.94552
C        -10.54262       16.89991        9.80168
O        -11.73888       17.04673        9.66542
C        -10.09226       18.05310       12.07320
C         -9.09657       18.31650       13.04925
C         -7.81984       17.75158       12.89808
C         -7.44702       17.01379       11.76112
S         -6.79456       18.12207       14.23165
C         -7.97545       19.11315       14.94997
C         -9.15006       19.12313       14.23452
H        -12.17452        0.83387        3.64080
H        -12.60455       -3.00781        0.41974
H        -15.01016       -3.10993        5.22241
H        -13.72586       -0.83032        5.39071
H         -7.83268       -0.50551       -0.18679
H         -4.81336        3.01852        1.78042
H         -5.87490        2.23215        4.05361
H         -7.93604       -1.52823        3.43680
H         -9.11288       -1.64535        5.78380
H         -8.52116        3.26254        5.78984
H         -9.79676        3.51009        3.02018
H        -10.73674        5.00848        1.86741
H        -10.11615        6.59121        1.38480
H        -12.70985        6.22675        2.97554
H        -12.63788        6.35067        1.20301
H        -12.14266        7.71107        2.20131
H         -6.95315        8.12273        8.45106
H         -6.70715        6.40523        8.53085
H         -9.13702        7.83977        9.69753
H         -7.86631        6.95623       10.54919
H         -9.03040        6.09140        9.52680
H         -9.30734        9.85179        5.65237
H         -8.46848        9.54079        8.59514
H         -6.13185       10.69997        6.79844
H         -7.43025       15.51385        7.17464
H        -11.14384       14.89862        8.30539
H        -11.10410       18.43623       12.16981
H         -6.44343       16.61077       11.67095
H         -7.75214       19.63732       15.86841
H        -10.01599       19.69791       14.53705
