111

C          6.18253        3.76276        1.04793
C          6.43245        2.53053        0.53355
C          7.72910        1.99209        0.56196
N          8.81785        1.55736        0.55987
C          5.47865        1.89907       -0.32311
N          4.70998        1.44841       -1.06940
C          7.19027        4.81468        1.33991
C          6.95648        5.81061        0.36764
C          7.57763        7.03883        0.36026
C          8.28416        7.38357        1.51024
C          8.40132        6.45835        2.59830
C          7.90770        5.13492        2.47626
C          8.92138        6.93553        3.81226
C          9.32999        8.26754        3.94593
C          9.27178        9.13541        2.85905
C          8.76114        8.69153        1.64277
C          5.65405        5.53038       -0.29602
O          5.32168        5.83453       -1.41923
C          5.02235        4.52922        0.63450
C          3.88248        4.51701        1.34354
C          2.82240        5.50153        1.35355
C          2.40780        6.20800        2.43770
N          3.01479        6.15579        3.75127
O          4.23202        5.93962        3.83238
O          2.26945        6.36956        4.71760
C          1.39070        7.17228        2.09947
C          1.19131        7.13556        0.76984
C          1.98615        6.02192        0.22272
C          1.96261        5.52758       -1.03837
C          2.52497        4.22794       -1.41295
C          2.49758        4.11448       -2.74668
C          1.84711        5.28640       -3.27753
N          1.62040        5.47186       -4.69599
O          0.63060        6.11547       -5.06780
O          2.42963        4.92997       -5.46296
C          1.43302        6.12225       -2.29719
C          0.74467        7.36980       -2.47423
C          1.26398        8.40220       -3.14830
C          0.50259        9.71767       -3.13280
C         -0.15052       10.84607       -3.11950
C         -0.82532       12.04946       -3.05236
S         -0.73021       12.91409       -1.61912
C         -1.69901       14.09648       -2.30754
C         -2.10256       13.85844       -3.59591
C         -1.57582       12.62466       -4.04486
C         -2.00816       15.19984       -1.53608
C         -2.27343       16.22248       -0.77196
C         -2.58269       17.41465        0.11882
C         -2.67424       17.32061        1.43986
C         -2.95518       18.66371        1.91571
C         -2.89034       19.52632        0.81112
C         -2.67794       18.79891       -0.29819
C         -3.00696       21.03871        0.90847
N         -3.10371       22.29337        0.98923
C         -3.34135       19.07560        3.11033
C         -3.60712       20.37408        3.68314
C         -4.05569       20.18412        4.93828
C         -4.14009       18.76408        5.17771
C         -3.71338       18.14589        4.07338
C         -3.61712       16.63210        3.97557
N         -3.53727       15.37628        3.89444
C         -4.46033       21.21950        5.82572
C         -3.92766       22.44574        5.80256
C         -4.30876       23.45182        6.74087
C         -5.53142       23.97724        6.87549
C         -5.92729       25.07828        7.75554
C         -5.46094       25.28673        9.01192
C         -6.01014       26.29279        9.85153
N         -6.46703       27.11100       10.53285
C         -4.45985       24.47380        9.61653
N         -3.63556       23.81033       10.10962
C         -7.09026       25.73604        7.09873
C         -7.55958       24.88327        6.08914
C         -6.70546       23.69814        5.97994
O         -6.97064       22.71208        5.32705
C         -8.66776       25.14766        5.30480
C         -9.36226       26.33195        5.54481
C         -8.88984       27.24243        6.53489
C         -7.73693       26.94556        7.29173
C         -9.60583       28.42450        6.75860
C        -10.77577       28.69432        6.04633
C        -11.23784       27.79669        5.08715
C        -10.52884       26.62554        4.82796
H          7.36146        7.75637       -0.42434
H          7.95208        4.45255        3.32157
H          8.95901        6.29274        4.68949
H          9.68076        8.63479        4.90771
H          9.59152       10.16915        2.96478
H          8.68653        9.39602        0.81625
H          3.78742        3.76719        2.13240
H          0.90691        7.82171        2.81610
H          0.49216        7.77800        0.26205
H          2.83134        3.44057       -0.74849
H          2.81582        3.26205       -3.32649
H         -0.23687        7.45406       -2.01369
H          2.27019        8.41840       -3.55492
H         -2.73025       14.52201       -4.17767
H         -1.73488       12.19180       -5.02500
H         -2.51394       16.38760        1.94377
H         -2.54796       19.15616       -1.30713
H         -3.48891       21.34653        3.24444
H         -4.47105       18.30939        6.09766
H         -5.23810       20.95368        6.54072
H         -3.12909       22.70912        5.11301
H         -3.46338       23.80049        7.32705
H         -8.97765       24.43957        4.54109
H         -7.38567       27.66893        8.02168
H         -9.27104       29.13931        7.50767
H        -11.33256       29.60551        6.24856
H        -12.15513       28.00518        4.54256
H        -10.90543       25.93596        4.07488
