104

C          6.28437        0.82065       -6.97509
C          6.79495        2.06796       -7.08762
C          8.06166        2.41889       -6.53733
N          9.08971        2.69789       -6.08441
C          6.18600        3.07046       -7.89626
N          5.74131        3.88750       -8.59460
C          7.02064       -0.37554       -6.50171
C          6.53108       -1.48791       -7.20714
C          7.01597       -2.76997       -7.02255
C          7.99075       -2.96488       -6.03504
C          8.45340       -1.85929       -5.26116
C          7.97525       -0.56084       -5.51598
C          9.36931       -2.08667       -4.22506
C          9.83252       -3.37424       -3.95356
C          9.40164       -4.44893       -4.72634
C          8.48923       -4.24633       -5.76281
C          5.34364       -1.10488       -8.00315
O          4.68824       -1.81911       -8.73035
C          5.05878        0.30890       -7.58975
C          3.77440        0.68130       -7.46336
C          3.31727        1.74622       -6.56317
C          3.15851        1.46291       -5.19153
C          2.76383        2.45525       -4.27687
C          2.55074        3.74963       -4.76626
C          2.71277        3.98648       -6.11804
C          3.05663        3.02657       -7.06176
O          2.48421        5.30866       -6.34087
C          2.16688        5.82032       -5.10187
N          2.18195        4.91028       -4.13629
C          1.81969        7.19557       -4.89358
S          2.33550        8.45527       -5.95826
C          1.55865        9.69412       -5.03967
C          0.89005        9.14662       -3.97583
C          1.06047        7.76317       -3.92481
C          0.31999        7.25013       -2.82639
C         -0.36473        8.24325       -2.11133
C         -1.25573        8.04128       -0.92686
S         -0.13611        9.88888       -2.69012
C          1.61905       11.07540       -5.34393
C          2.50062       11.94414       -4.78755
N          3.54567       11.61102       -3.84093
O          4.00321       12.54855       -3.17108
O          3.95514       10.44601       -3.77403
C          2.27470       13.29945       -5.24103
C          1.26413       13.29766       -6.12093
C          0.80937       11.91215       -6.29243
C         -0.13237       11.52097       -7.18071
C         -0.70949       10.17677       -7.27536
C         -1.53536       10.15087       -8.33329
C         -1.51694       11.45492       -8.95309
N         -2.18321       11.73535      -10.20593
O         -1.62075       12.47022      -11.02944
O         -3.26629       11.16243      -10.39728
C         -0.74581       12.33274       -8.27811
C         -0.51381       13.71251       -8.65655
C         -1.48817       14.63613       -8.70744
C         -1.28992       15.92666       -9.28474
S         -2.66877       16.70983       -9.97040
C         -1.76840       18.03727      -10.60649
C         -0.43871       17.90023      -10.25013
C         -0.17568       16.72602       -9.45923
N          1.05177       16.41592       -8.95961
C          2.00745       17.33672       -9.28965
C          3.36233       17.06046       -8.67165
C          3.59514       17.80022       -7.35361
O          2.78431       17.26379       -6.31148
C          1.76027       18.45703      -10.12823
C          2.86318       19.40157      -10.56498
N          3.09442       20.48365       -9.60642
N          0.52283       18.79435      -10.61757
C         -2.38202       19.04782      -11.41037
C         -3.66739       19.41047      -11.29697
H          6.60092       -3.59768       -7.59078
H          8.32759        0.26690       -4.90651
H          9.72136       -1.26326       -3.60612
H         10.52977       -3.53726       -3.13542
H          9.76903       -5.45023       -4.51546
H          8.15949       -5.10387       -6.34595
H          2.97998        0.05964       -7.87681
H          3.33360        0.45435       -4.81618
H          2.63569        2.23223       -3.22270
H          3.15000        3.28146       -8.11064
H          0.26380        6.19903       -2.56310
H         -1.37374        6.97559       -0.70394
H         -2.25217        8.45314       -1.11842
H         -0.83731        8.52759       -0.04008
H          2.80547       14.17153       -4.88785
H          0.84617       14.19041       -6.55889
H         -0.56380        9.35162       -6.60131
H         -2.13769        9.31880       -8.66812
H          0.50028       13.94034       -8.98006
H         -2.50004       14.36881       -8.40866
H          4.16147       17.29703       -9.37980
H          3.43461       15.98068       -8.48706
H          3.39863       18.87198       -7.43567
H          4.63699       17.66327       -7.04506
H          2.93993       17.81161       -5.52257
H          2.57552       19.84574      -11.52669
H          3.79526       18.86392      -10.76089
H          2.18848       20.91817       -9.41268
H          3.64076       21.21038      -10.06929
H         -1.75241       19.55619      -12.13784
H         -4.34629       18.97380      -10.57125
H         -4.07829       20.18308      -11.93924
