123

C         -0.81424        0.97616        1.19101
C         -0.72753        0.14247        2.25595
C          0.46530       -0.57949        2.56174
N          1.42046       -1.16218        2.81576
C         -1.77929       -0.00845        3.19895
N         -2.65722       -0.13550        3.94932
C          0.27397        1.31832        0.23208
C         -0.04857        2.53508       -0.37509
C          0.71921        3.13800       -1.36823
C          1.88705        2.46428       -1.79433
C          2.22963        1.25341       -1.17169
C          1.43847        0.66468       -0.15206
S          3.69005        0.60544       -1.83051
C          3.82360        1.86676       -2.94293
C          2.82633        2.79869       -2.83157
Br         5.19837        1.97001       -4.21105
C         -1.33806        3.03283        0.13577
O         -1.77943        4.14674       -0.03000
C         -1.93362        1.90069        0.91701
C         -3.24936        1.70219        1.11250
C         -4.30289        2.53725        0.62738
S         -4.91751        3.68411        1.73904
C         -6.21165        4.13605        0.71577
C         -6.21598        3.36537       -0.43529
C         -5.04803        2.52968       -0.55793
O         -4.80467        1.78821       -1.69140
C         -3.61689        1.00288       -1.64442
C         -3.67818       -0.26227       -2.45232
O         -7.17473        3.54047       -1.38293
N         -8.11167        2.47389       -1.48342
O         -8.94552        2.66192       -2.37324
O         -8.01336        1.52991       -0.69447
C         -7.05212        5.19201        1.15801
C         -7.67608        5.98823        0.27410
C         -8.47740        7.15717        0.63462
C         -9.12525        7.20915        1.87194
C         -9.88909        8.31177        2.19433
C        -10.02335        9.36110        1.26322
C         -9.40946        9.31965        0.02169
C         -8.63344        8.20681       -0.29331
C        -10.87205       10.37581        1.82002
C        -11.30178        9.96885        3.09584
C        -10.66739        8.60428        3.48501
C        -11.83541        7.61281        3.74575
C        -11.51075        6.18172        4.14974
C         -9.73165        8.89435        4.69423
C         -8.79341        7.80271        5.19319
C        -12.15696       10.76830        3.83966
C        -12.57890       11.99324        3.30186
C        -12.10158       12.40311        2.04028
C        -11.25673       11.59068        1.28772
C        -13.48531       12.81901        4.10946
C        -14.22590       13.83036        3.63068
C        -15.18899       14.63838        4.40361
C        -16.31538       15.20259        3.78141
C        -17.29395       15.97214        4.49949
N        -18.33130       16.50575        3.80978
C        -18.45273       16.26126        2.47535
C        -17.54599       15.48182        1.81191
N        -16.47396       14.96976        2.45823
C        -17.66880       15.14516        0.42736
N        -17.79505       14.88354       -0.69620
C        -19.58769       16.84580        1.82852
N        -20.51451       17.30959        1.30758
C        -17.23176       16.15630        5.90398
C        -16.07742       15.63239        6.56775
C        -15.02648       14.87358        5.79512
N        -13.99596       14.48874        6.56772
S        -14.34621       14.92886        8.11749
N        -15.78969       15.70857        7.87967
C        -18.24706       16.89464        6.70783
C        -19.58468       16.93183        6.54701
C        -20.50533       16.27146        5.61494
C        -20.58690       14.94242        5.36710
C        -21.53580       14.37134        4.47346
N        -22.26924       13.90979        3.70225
C        -19.77369       14.02062        6.08527
N        -19.12504       13.28521        6.69947
C        -21.60275       17.22584        5.33863
C        -21.62779       18.13891        6.39590
C        -20.40085       18.00344        7.21910
O        -20.10464       18.66352        8.19157
C        -22.67695       19.02490        6.59715
C        -23.74789       18.99848        5.66793
C        -23.64774       18.16682        4.54026
C        -22.56068       17.28868        4.33704
S        -25.01845       18.34224        3.50474
C        -25.77501       19.39200        4.58611
C        -25.00795       19.69186        5.68081
Br       -27.49868       20.07144        4.31134
H          0.40424        4.07226       -1.82718
H          1.74911       -0.28625        0.26591
H          2.74690        3.67472       -3.46457
H         -3.60998        0.75425        1.51202
H         -3.51796        0.55612       -0.67082
H         -2.73624        1.60631       -1.89559
H         -4.56581       -0.82815       -2.15429
H         -2.79924       -0.88442       -2.23178
H         -3.71017       -0.03949       -3.51390
H         -7.10405        5.37870        2.23107
H         -7.59042        5.82519       -0.79356
H         -9.02774        6.38913        2.57040
H         -9.53180       10.12554       -0.69422
H         -8.15289        8.17068       -1.26934
H        -12.46771        7.56132        2.84747
H        -12.48214        8.01601        4.53641
H        -10.80722        5.69559        3.47499
H        -12.42821        5.58209        4.13427
H        -11.12758        6.12931        5.16983
H        -10.33794        9.22150        5.54936
H         -9.09202        9.75359        4.44287
H         -9.32338        7.01137        5.72366
H         -8.08718        8.23741        5.91041
H         -8.19322        7.36016        4.39786
H        -12.48869       10.44402        4.82163
H        -12.37507       13.36694        1.62172
H        -10.90897       11.91840        0.31450
H        -13.55177       12.52510        5.15324
H        -14.19794       14.06153        2.56798
H        -17.81608       17.53028        7.48719
H        -22.69190       19.68040        7.46301
H        -22.53479       16.66597        3.44842
H        -25.32863       20.35217        6.47712
