117

C          1.34087       -1.89037        4.91932
C          2.46769       -1.46720        4.21524
F          3.57604       -1.14276        4.89167
C          2.45009       -1.38202        2.83056
F          3.54342       -0.99372        2.15933
C          1.29770       -1.69047        2.12354
C          0.15022       -2.09246        2.81575
C          0.16309       -2.22594        4.23684
C         -0.98961       -2.68297        4.92806
C         -2.15198       -2.96628        4.22446
C         -2.12197       -2.75903        2.84269
C         -1.01624       -2.35327        2.11622
C         -3.41762       -3.02738        2.24907
O         -3.72420       -2.61827        1.15189
C         -4.21161       -3.75104        3.29016
C         -3.51735       -3.48032        4.58448
C         -4.04714       -3.57113        5.82866
C         -3.31445       -3.23103        7.00231
N         -2.71210       -2.95617        7.95365
C         -5.39599       -3.96903        6.06244
N         -6.49420       -4.30112        6.24661
C         -5.16870       -4.65679        3.02058
C         -5.61736       -5.04560        1.72369
O         -6.02953       -6.33915        1.48614
C         -6.39882       -6.49366        0.17012
C         -6.18009       -5.27892       -0.46460
C         -5.77015       -4.36123        0.53053
N         -6.34555       -4.98279       -1.86288
O         -6.75582       -5.88219       -2.60630
O         -6.05135       -3.83778       -2.22649
C         -6.93799       -7.69612       -0.35033
C         -6.58931       -8.91039        0.08647
C         -7.08904      -10.14917       -0.45727
N         -7.37742      -10.42617       -1.80773
C         -7.23518       -9.58105       -2.97915
C         -5.87145       -9.68672       -3.63730
C         -7.75917      -11.77658       -1.98160
O         -8.02708      -12.38966       -2.99431
C         -7.72772      -12.30490       -0.61477
C         -7.29875      -11.25913        0.26534
C         -7.23837      -11.82386        1.62747
O         -6.86605      -11.25705        2.63556
N         -7.66981      -13.16105        1.43839
C         -7.59791      -14.15460        2.49547
C         -8.93595      -14.74524        2.91552
C         -7.92394      -13.41806        0.08929
C         -8.30298      -14.69827       -0.43250
C         -7.58066      -15.34839       -1.35555
C         -7.97168      -16.60370       -1.93146
C         -8.18933      -16.76277       -3.25298
C         -8.53962      -18.16374       -3.50316
C         -8.50808      -18.81512       -2.18240
C         -8.17272      -17.88291       -1.27392
C         -8.75578      -20.16690       -1.84921
N         -8.95619      -21.27231       -1.56242
C         -8.82095      -18.69660       -4.71147
C         -9.16661      -20.09556       -4.96249
C         -9.42333      -20.24935       -6.27575
C         -9.20918      -18.97015       -6.93414
C         -8.85679      -18.04396       -6.02799
C         -8.56008      -16.70070       -6.37015
N         -8.31715      -15.60863       -6.67113
C         -9.79737      -21.51142       -6.85855
C        -10.90700      -21.77466       -7.56440
C        -12.00177      -20.85894       -7.80429
C        -12.87987      -20.91475       -8.81534
C        -14.15982      -20.14009       -8.69691
O        -14.39559      -19.18947       -7.98217
C        -15.11765      -20.83670       -9.57574
C        -16.47894      -20.59175       -9.66350
C        -17.25315      -21.44919      -10.45642
C        -16.63281      -22.55062      -11.12303
C        -17.42347      -23.42741      -11.87889
C        -18.79373      -23.21668      -11.98847
C        -19.39325      -22.13708      -11.35608
C        -18.63576      -21.25466      -10.59152
F        -20.71317      -21.93705      -11.47212
F        -19.53063      -24.06979      -12.71218
C        -15.24211      -22.75316      -11.01899
C        -14.47367      -21.87686      -10.26717
C        -13.01559      -21.78175       -9.99407
C        -12.03184      -22.15326      -10.85105
C        -10.68339      -21.72526      -10.69653
N         -9.57655      -21.36806      -10.60954
C        -12.29400      -22.89060      -12.04080
N        -12.51838      -23.50330      -13.00181
H          1.39783       -1.94340        6.00372
H          1.30878       -1.60877        1.03891
H         -0.92748       -2.80384        6.00492
H         -1.08597       -2.24784        1.03614
H         -5.58123       -5.27342        3.81435
H         -5.58477       -3.31353        0.34908
H         -7.67556       -7.58234       -1.13038
H         -5.91768       -9.00380        0.94176
H         -7.46209       -8.54294       -2.76138
H         -7.99429       -9.88814       -3.70885
H         -5.07468       -9.35984       -2.96272
H         -5.84054       -9.05605       -4.53255
H         -5.66318      -10.71675       -3.94166
H         -7.13298      -13.69627        3.37607
H         -6.92566      -14.95304        2.16259
H         -9.60761      -13.97766        3.31136
H         -8.77742      -15.49665        3.69695
H         -9.44769      -15.24441        2.09008
H         -9.24815      -15.10591       -0.08679
H         -6.66056      -14.91928       -1.74950
H         -8.11427      -15.96259       -3.97120
H         -8.04358      -18.03730       -0.21241
H         -9.23046      -20.89450       -4.24329
H         -9.29829      -18.82254       -8.00097
H         -9.07794      -22.31572       -6.70711
H        -11.02539      -22.79053       -7.93719
H        -12.17384      -20.12515       -7.01471
H        -16.91966      -19.76829       -9.10709
H        -16.98891      -24.28223      -12.39156
H        -19.14049      -20.42360      -10.10617
H        -14.79712      -23.60975      -11.51962
