120

C        -11.16597        3.67684       -4.56865
C        -11.62885        4.13543       -5.79996
F        -11.31491        5.37631       -6.19619
C        -12.39903        3.31862       -6.61532
F        -12.82365        3.76006       -7.80702
C        -12.73428        2.03304       -6.20912
C        -12.28723        1.55155       -4.97154
C        -11.47549        2.37869       -4.13502
C        -10.97138        1.87990       -2.91150
C        -11.26774        0.57886       -2.52846
C        -12.07699       -0.19685       -3.37214
C        -12.60219        0.25313       -4.57035
C        -12.13663       -1.58245       -2.89465
O        -12.85068       -2.46520       -3.31977
C        -11.08475       -1.67468       -1.83160
C        -10.81234       -0.28764       -1.40113
C        -10.39227        0.12078       -0.18073
C        -10.14461       -0.80862        0.87090
N         -9.96385       -1.58680        1.71155
C        -10.26144        1.49583        0.16375
N        -10.15788        2.61753        0.44167
C        -10.37291       -2.79785       -1.61968
C        -10.52355       -4.05522       -2.34466
C        -10.40525       -4.23932       -3.68821
N        -10.02930       -3.21171       -4.63544
O         -9.28000       -2.30090       -4.25063
O        -10.45013       -3.33072       -5.79411
C        -10.59752       -5.61316       -4.07759
C        -10.74626       -6.34742       -2.96677
C        -10.65929       -5.45315       -1.80393
C        -10.68996       -5.85329       -0.51103
C        -10.89164       -4.96659        0.63335
C        -10.89601       -5.71563        1.74544
C        -10.66670       -7.09963        1.37816
N        -10.57953       -8.16352        2.36191
O        -10.43388       -9.33325        1.99187
O        -10.66609       -7.82224        3.55183
C        -10.53838       -7.24125        0.04205
C        -10.21869       -8.45362       -0.67633
C         -9.07151       -9.15055       -0.56442
C         -8.81565      -10.31589       -1.35321
S         -9.42197      -10.38317       -2.97040
C         -8.72010      -11.90823       -3.31115
C         -7.92068      -12.30587       -2.25965
C         -8.06510      -11.45433       -1.09689
C         -7.46923      -11.74871        0.14294
C         -6.70234      -12.94655        0.12716
C         -6.04824      -13.44021        1.39281
C         -6.50927      -13.73266       -1.05510
C         -7.10466      -13.44469       -2.29516
C         -9.07756      -12.48614       -4.55663
C         -9.19290      -13.81051       -4.70252
C         -9.63096      -14.44483       -5.90697
C         -9.66051      -15.78549       -6.03972
C        -10.24530      -16.10405       -7.33663
C        -10.52684      -14.81016       -7.97657
C        -10.16390      -13.84694       -7.11994
C        -11.06706      -14.53695       -9.25320
N        -11.50958      -14.30509      -10.30327
C        -10.49576      -17.34482       -7.78882
C        -11.15263      -17.63680       -9.05177
C        -11.30365      -18.96790       -9.15942
C        -10.70567      -19.59414       -7.98922
C        -10.21995      -18.64487       -7.16482
C         -9.54183      -18.92783       -5.95970
N         -8.98534      -19.15943       -4.96259
C        -11.88265      -19.55873      -10.32915
C        -12.52012      -20.73548      -10.33314
C        -13.12746      -21.26086      -11.52414
C        -12.53806      -21.58490      -12.68274
C        -13.47061      -21.77811      -13.83786
O        -14.68049      -21.87300      -13.81952
C        -12.62887      -21.79149      -15.03562
C        -13.08878      -22.01154      -16.32485
C        -12.14226      -22.15961      -17.34050
C        -10.75606      -22.04167      -17.03114
C         -9.80726      -22.25280      -18.03987
C        -10.21933      -22.57731      -19.32685
C        -11.56974      -22.67718      -19.63082
C        -12.53378      -22.46511      -18.65066
F        -11.95796      -22.99595      -20.87252
F         -9.29540      -22.80642      -20.26933
C        -10.33897      -21.76056      -15.71615
C        -11.27551      -21.64606      -14.69719
C        -11.15753      -21.57880      -13.20446
C         -9.99132      -21.70017      -12.52187
C         -9.92962      -22.16568      -11.17724
N         -9.82650      -22.61446      -10.11146
C         -8.71544      -21.44779      -13.11198
N         -7.68629      -21.20484      -13.58630
H        -10.55551        4.34433       -3.96594
H        -13.32965        1.41453       -6.87591
H        -10.31308        2.51039       -2.32009
H        -13.18652       -0.41865       -5.19419
H         -9.52301       -2.79395       -0.93971
H        -10.67009       -5.95999       -5.09745
H        -10.99754       -7.39283       -2.97336
H        -11.09982       -3.91110        0.61800
H        -11.06822       -5.36661        2.75290
H        -11.01046       -8.79201       -1.33944
H         -8.30171       -8.84867        0.14101
H         -7.59971      -11.15702        1.04020
H         -6.37607      -14.46400        1.60718
H         -6.31339      -12.81822        2.25225
H         -4.95945      -13.43132        1.28044
H         -5.87481      -14.61934       -0.99673
H         -6.92127      -14.06447       -3.16276
H         -9.35426      -11.81578       -5.36576
H         -8.99249      -14.48285       -3.87055
H         -9.34001      -16.47541       -5.27706
H        -10.24897      -12.78594       -7.29299
H        -11.49867      -16.93535       -9.79083
H        -10.64293      -20.66158       -7.84209
H        -11.81723      -18.96920      -11.24374
H        -12.68123      -21.29510       -9.41394
H        -14.21609      -21.32450      -11.44450
H        -14.15508      -22.11930      -16.50862
H         -8.74100      -22.19317      -17.83569
H        -13.58195      -22.56490      -18.91961
H         -9.27263      -21.70001      -15.53271
