82

C         -9.92320        1.69742        3.05119
C        -10.53772        0.72296        3.77173
C        -11.30679        0.99112        4.93834
N        -11.96547        1.23795        5.86111
C        -10.51164       -0.65581        3.41297
N        -10.50743       -1.77972        3.11963
C        -10.01800        3.17360        3.31055
C         -9.37342        3.85367        2.27682
C         -9.22645        5.24024        2.22816
C         -9.75705        6.00480        3.29276
C        -10.42226        5.33303        4.32675
C        -10.56799        3.92260        4.34888
S        -10.98287        6.43618        5.53358
C        -10.30026        7.75476        4.73253
C         -9.70317        7.42005        3.54590
Br       -10.33619        9.49743        5.41952
C         -8.80894        2.91241        1.29755
O         -8.24093        3.24457        0.27823
C         -9.06840        1.53312        1.83886
C         -8.48837        0.42558        1.34691
C         -7.61629        0.37669        0.22464
O         -8.11101        0.22457       -1.05355
C         -7.06762        0.12480       -1.90923
C         -5.87933        0.19786       -1.22965
C         -6.22280        0.33892        0.13635
S         -5.02995        0.52742        1.40921
C         -4.75632       -1.14732        1.78926
C         -5.36263       -1.81683        2.78204
C         -5.07695       -3.19093        3.12575
C         -5.85575       -3.67309        4.10353
C         -6.80405       -2.71040        4.63363
S         -6.59110       -1.16016        3.83726
C         -7.69886       -2.93728        5.61242
C         -7.88709       -4.18945        6.31526
C         -8.82225       -4.14251        7.27171
C         -9.46154       -2.85235        7.39752
S         -8.79234       -1.71914        6.25312
C        -10.43939       -2.61242        8.28210
C        -11.03797       -1.33990        8.50656
O        -10.36022       -0.14779        8.35015
C        -11.15792        0.86272        8.75576
C        -12.36912        0.37634        9.16735
C        -12.30979       -1.02644        8.98299
S        -13.57927       -2.17026        9.38996
C        -14.83609       -1.52582        8.38193
C        -15.73268       -0.59088        8.73812
C        -16.89948       -0.04613        7.99405
C        -17.09367       -0.03332        6.64746
C        -18.20586        0.59329        6.03352
N        -19.12633        1.10272        5.51615
C        -16.16816       -0.61121        5.72539
N        -15.42822       -1.08691        4.97213
C        -17.76467        0.64388        9.00872
C        -17.06281        0.70755       10.21153
C        -15.78023        0.01865       10.11143
O        -14.96618       -0.00471       11.01028
C        -17.53270        1.30061       11.37699
C        -18.82527        1.85516       11.34973
C        -19.56424        1.77465       10.15966
C        -19.05287        1.16969        8.97818
S        -21.12476        2.49264       10.35920
C        -20.80746        2.89599       11.96780
C        -19.56395        2.51253       12.38965
Br       -22.03814        3.77832       13.06986
H         -8.67553        5.70786        1.41618
H        -11.06841        3.48586        5.20265
H         -9.21406        8.13505        2.89547
H         -8.64953       -0.54819        1.78418
H         -7.33044        0.00974       -2.95096
H         -4.89249        0.15973       -1.66684
H         -3.98212       -1.65049        1.21397
H         -4.30321       -3.77197        2.64272
H         -5.77472       -4.68400        4.47528
H         -7.31883       -5.08132        6.09950
H         -9.07136       -4.98030        7.90754
H        -10.79267       -3.42502        8.91001
H        -10.73453        1.85336        8.67897
H        -13.17474        0.97690        9.55744
H        -14.88461       -2.01395        7.41679
H        -16.92272        1.31435       12.27707
H        -19.69239        1.12844        8.10416
H        -19.18276        2.68088       13.39011
