111

C         -1.85633        8.44236       -5.75392
C         -0.95472        7.44553       -5.61484
C          0.33336        7.48230       -6.20947
N          1.38775        7.51254       -6.69579
C         -1.19089        6.27400       -4.82906
N         -1.37390        5.32108       -4.19660
C         -1.63371        9.75935       -6.43653
C         -2.66058       10.62312       -6.05229
C         -2.79009       11.93447       -6.49730
C         -1.80455       12.43410       -7.37386
C         -0.75803       11.58406       -7.76276
C         -0.66300       10.23625       -7.31714
S          0.34288       12.40794       -8.81429
C         -0.55532       13.83654       -8.74657
C         -1.67684       13.73547       -7.96924
Br        -0.06683       15.40768       -9.64317
C         -3.59359        9.96162       -5.13189
O         -4.46934       10.52452       -4.50853
C         -3.19427        8.51791       -5.11668
C         -4.00693        7.51361       -4.73765
C         -5.35198        7.59747       -4.21104
C         -6.04818        6.48389       -3.92687
C         -7.37176        6.54220       -3.43246
O         -7.88056        7.62624       -2.76538
C         -9.16936        7.37027       -2.36359
C         -9.50423        6.11099       -2.82973
C         -8.37671        5.59352       -3.47939
O         -8.27882        4.38682       -4.06313
O        -10.68402        5.47690       -2.68228
C         -9.92124        8.28758       -1.60122
C         -9.39685        9.46940       -1.25338
C        -10.07921       10.45513       -0.45748
C        -11.29253       10.27319        0.07673
C        -11.94942       11.24674        0.88504
C        -12.24213       12.47508        0.44828
C        -12.93278       13.37181        1.28928
O        -13.71697       14.37110        0.77432
C        -14.32802       15.05660        1.79605
C        -13.86198       14.52218        2.98486
C        -12.99780       13.47612        2.66726
O        -12.32346       12.71760        3.54993
O        -14.13985       14.93225        4.23542
C        -15.21138       16.11576        1.50575
C        -16.25060       16.42066        2.29224
C        -17.15756       17.51426        2.05681
C        -17.17774       18.26259        0.94713
C        -18.11413       19.33055        0.76377
C        -18.38638       19.82517       -0.44990
C        -19.32283       20.87433       -0.57017
O        -20.25284       21.16214        0.39814
C        -21.02616       22.23733        0.02094
C        -20.55877       22.63858       -1.22152
C        -19.51032       21.78196       -1.58877
O        -18.78166       21.83015       -2.71832
O        -21.01758       23.66045       -1.96620
C        -22.07548       22.73664        0.83915
C        -22.38841       22.10421        1.97979
C        -23.45826       22.52831        2.84935
C        -24.02723       21.67781        3.71455
C        -25.11308       22.05214        4.58763
C        -25.73909       21.27005        5.47839
C        -25.58132       19.87440        5.90742
C        -24.42457       19.22705        6.19287
C        -24.38813       17.88684        6.66851
N        -24.35499       16.78814        7.04320
C        -23.14793       19.86134        6.13482
N        -22.09507       20.34780        6.10327
C        -26.95007       19.39798        6.26703
C        -27.78384       20.51546        6.38684
C        -27.07316       21.73779        5.97706
O        -27.52086       22.86510        5.97955
C        -29.11606       20.45190        6.77563
C        -29.65462       19.17665        7.05897
C        -28.83609       18.04719        6.89937
C        -27.48239       18.13444        6.48878
S        -29.69788       16.59617        7.27032
C        -31.09951       17.45195        7.65629
C        -30.97112       18.80605        7.50043
Br       -32.67572       16.62465        8.23833
H         -3.62519       12.54956       -6.17305
H          0.16465        9.63453       -7.67688
H         -2.37827       14.54596       -7.80938
H         -3.68567        6.49162       -4.87462
H         -5.80692        8.57765       -4.06358
H         -5.62629        5.49389       -4.07320
H         -9.13826        3.93666       -3.95760
H        -11.32244        6.04540       -2.22419
H        -10.91505        7.99187       -1.29356
H         -8.38934        9.74742       -1.56735
H         -9.53148       11.38170       -0.28390
H        -11.85281        9.35197       -0.03237
H        -12.25566       10.89753        1.86714
H        -12.01219       12.79349       -0.56425
H        -12.53369       13.04434        4.44446
H        -14.63207       15.76990        4.21234
H        -15.01323       16.63857        0.57670
H        -16.48043       15.83244        3.17743
H        -17.88598       17.69212        2.84693
H        -16.48686       18.09159        0.12646
H        -18.59281       19.73492        1.65399
H        -17.91958       19.43845       -1.35048
H        -19.09790       22.58438       -3.24969
H        -21.75620       24.10345       -1.51662
H        -22.63905       23.60191        0.51358
H        -21.83281       21.21733        2.28898
H        -23.79027       23.56089        2.77729
H        -23.69864       20.64313        3.70620
H        -25.50996       23.05688        4.42154
H        -29.71669       21.35436        6.85168
H        -26.91355       17.21986        6.36360
H        -31.76755       19.51448        7.69451
