99

C         -4.75110       -4.14562        8.23261
C         -3.86334       -4.79930        7.45014
C         -2.97432       -5.80339        7.94711
N         -2.23282       -6.60286        8.34919
C         -3.65560       -4.50167        6.07315
N         -3.46730       -4.28484        4.95229
C         -4.91771       -4.36626        9.71200
C         -5.63769       -3.30040       10.24605
C         -5.92184       -3.16045       11.60502
C         -5.46729       -4.16306       12.49365
C         -4.78195       -5.26319       11.96002
C         -4.50870       -5.38671       10.57226
S         -4.34772       -6.38955       13.19883
C         -5.03530       -5.42851       14.40390
C         -5.59258       -4.27305       13.92363
Br        -5.04045       -5.90314       16.21716
C         -6.07495       -2.37709        9.18457
O         -6.74892       -1.38612        9.38096
C         -5.57486       -2.94317        7.87479
C         -5.89019       -2.42115        6.66950
C         -6.53226       -1.13552        6.38644
C         -6.97360       -0.66861        5.20237
C         -7.51133        0.66429        5.00702
C         -8.16187        0.82257        3.84399
C         -8.22133       -0.39544        3.05497
S         -7.05772       -1.56585        3.70533
C         -9.12074       -0.67844        2.09154
C        -10.23183        0.16091        1.67049
C        -11.14741       -0.48703        0.93314
C        -10.81387       -1.87483        0.69061
S         -9.22314       -2.24683        1.29524
C        -11.64634       -2.76564        0.13151
C        -11.39360       -4.20350       -0.06868
S        -11.96267       -5.22317        1.28451
C        -10.96609       -6.66631        1.10009
C        -10.52549       -7.43597        2.15358
S         -9.59492       -8.77740        1.62602
C         -9.78962       -8.33677       -0.01638
C        -10.52966       -7.18476       -0.14887
S        -10.87847       -6.44281       -1.69527
C        -10.83015       -4.72185       -1.23929
C        -10.07000       -3.91949       -2.19225
C         -8.76342       -3.70654       -1.97854
C         -7.91053       -2.97066       -2.87620
C         -8.02854       -1.68712       -3.24735
C         -7.08841       -1.05696       -4.13649
C         -7.36226        0.22828       -4.37729
C         -8.56540        0.72814       -3.71891
S         -9.27645       -0.55750       -2.74719
C         -9.06479        1.97371       -3.87627
C         -8.40012        3.01986       -4.63114
C         -9.11129        4.14238       -4.76734
C        -10.42381        4.08780       -4.16315
S        -10.61849        2.58814       -3.26990
C        -11.31540        5.07437       -4.36935
C        -12.70785        5.16975       -3.97783
C        -13.56867        6.17640       -4.23481
C        -13.49587        7.51923       -4.85397
C        -12.54479        8.46829       -4.66032
C        -12.62996        9.79053       -5.20626
N        -12.68669       10.85491       -5.65658
C        -11.41486        8.25472       -3.81652
N        -10.48437        8.10589       -3.14826
C        -14.82679        7.76251       -5.50105
C        -15.71310        6.77965       -5.05594
C        -15.02989        5.82987       -4.15864
O        -15.55932        4.93091       -3.53990
C        -17.04090        6.68888       -5.46330
C        -17.52694        7.66757       -6.36049
C        -16.64754        8.66689       -6.80392
C        -15.28730        8.72111       -6.40017
S        -17.44577        9.77075       -7.86888
C        -18.90749        8.93687       -7.74276
C        -18.83344        7.82959       -6.94041
Br       -20.47541        9.47791       -8.61432
H         -6.48196       -2.30259       11.96745
H         -3.99033       -6.27838       10.23814
H         -6.07713       -3.53418       14.55067
H         -5.59985       -2.94272        5.76258
H         -6.62595       -0.46027        7.23467
H         -7.39686        1.45130        5.73971
H         -8.63154        1.74847        3.54133
H        -10.35372        1.19087        1.97661
H        -12.06802       -0.03709        0.58385
H        -12.64263       -2.45332       -0.17334
H        -10.69218       -7.28299        3.21050
H         -9.34057       -8.93283       -0.79972
H        -10.58422       -3.56040       -3.07596
H         -8.26021       -4.13825       -1.11237
H         -7.06356       -3.55460       -3.23775
H         -6.25341       -1.58892       -4.57458
H         -6.75803        0.81884       -5.04941
H         -7.40877        2.91543       -5.04607
H         -8.75148        5.00700       -5.30695
H        -10.97257        5.88706       -5.00585
H        -13.11383        4.25661       -3.53507
H        -17.67674        5.88311       -5.10612
H        -14.66073        9.50572       -6.80947
H        -19.66850        7.16521       -6.75225
