85

C         -4.66712        0.36182        1.56077
C         -5.00932       -0.82299        2.12171
C         -4.05282       -1.71903        2.66647
N         -3.27098       -2.45086        3.11729
C         -6.35272       -1.29806        2.20039
N         -7.44116       -1.69262        2.27857
C         -3.28069        0.89660        1.35278
C         -3.34604        1.99754        0.49011
C         -2.24627        2.74624        0.08823
C         -0.98520        2.38381        0.60772
C         -0.90852        1.29614        1.49115
C         -2.04487        0.53974        1.87736
S          0.71628        1.04097        2.02208
C          1.28651        2.34003        1.10900
C          0.30591        2.97815        0.39841
Br         3.08571        2.85890        1.07936
C         -4.73808        2.30607        0.14507
O         -5.12384        3.20395       -0.57776
C         -5.56619        1.33924        0.92186
C         -6.88131        1.54442        1.05696
N         -7.66232        2.53875        0.50791
C         -9.00747        2.72125        0.65978
S         -9.98195        1.66694        1.62423
C        -11.39534        2.51674        1.28381
N        -12.64441        2.08419        1.83527
O        -13.63214        2.77841        1.56140
O        -12.66135        1.06479        2.53991
C        -11.17813        3.59931        0.46550
C         -9.79731        3.71222        0.08394
C         -9.27851        4.72434       -0.79595
C         -9.98151        5.30769       -1.78078
C         -9.43009        6.30677       -2.66998
C        -10.07735        6.92456       -3.68045
C        -11.52345        6.70764       -4.04908
C         -9.37187        7.97730       -4.50824
N         -8.77799        7.36577       -5.67787
C         -9.37279        7.21887       -6.90322
C         -8.86661        6.61932       -7.98730
C         -9.59606        6.53891       -9.24076
C         -9.42964        5.61400      -10.19868
C        -10.16323        5.58333      -11.44304
C         -9.83474        4.55571      -12.24085
C         -8.82106        3.67616      -11.68101
S         -8.33958        4.25948      -10.08617
C         -8.29767        2.57293      -12.25125
C         -8.60962        2.03744      -13.56376
C         -7.95054        0.90808      -13.86351
C         -7.07315        0.44813      -12.80920
S         -7.09810        1.54883      -11.45726
C         -6.35497       -0.68407      -12.86791
C         -5.54273       -1.14960      -11.79530
S         -3.88328       -0.68120      -11.67918
C         -3.63763       -1.61856      -10.26184
C         -4.78552       -2.27806       -9.90888
C         -5.86122       -2.00263      -10.75840
O         -7.08687       -2.51935      -10.57497
C         -7.27656       -3.31528       -9.50169
O         -8.39331       -3.68218       -9.15753
C         -6.01138       -3.81364       -8.71833
O         -6.09044       -4.78402       -7.97521
O         -4.85627       -3.13282       -8.87903
H         -2.36523        3.59592       -0.57880
H         -1.90844       -0.26816        2.58617
H          0.48272        3.83596       -0.23948
H         -7.45619        0.89227        1.69930
H         -7.13469        3.17334       -0.10245
H        -11.96731        4.27418        0.15240
H         -8.23731        5.01430       -0.66281
H        -11.00978        5.00125       -1.94255
H         -8.38363        6.56019       -2.49912
H        -12.05620        6.03002       -3.37862
H        -11.60491        6.29153       -5.05730
H        -12.06497        7.65927       -4.01946
H         -8.58212        8.46265       -3.92274
H        -10.06747        8.77505       -4.79411
H         -7.84033        6.98985       -5.57064
H        -10.37850        7.63273       -6.93350
H         -7.87547        6.17449       -7.94387
H        -10.33879        7.31989       -9.39318
H        -10.90590        6.32780      -11.69715
H        -10.29234        4.39337      -13.20643
H         -9.30812        2.50512      -14.24340
H         -8.06583        0.37470      -14.79766
H         -6.40931       -1.31747      -13.74836
H         -2.66792       -1.65171       -9.78362
