79

C         -9.13017        1.09244       -7.33377
C         -8.84701        2.32164       -7.78722
C         -7.59163        2.64478       -8.37264
N         -6.56343        2.90539       -8.81660
C         -9.73052        3.42931       -7.68365
N        -10.45568        4.33453       -7.63532
C         -8.33750       -0.14636       -7.60046
C         -8.78102       -1.17342       -6.76368
C         -8.46191       -2.51369       -6.93144
C         -7.79916       -2.85220       -8.12195
C         -7.33556       -1.82239       -8.96776
C         -7.52549       -0.45509       -8.68308
S         -6.62552       -2.46866      -10.39840
C         -7.07347       -4.03952       -9.98043
C         -7.60725       -4.13779       -8.72310
Br        -6.88940       -5.49756      -11.13651
C         -9.89988       -0.71917       -5.94389
O        -10.51774       -1.39458       -5.14732
C        -10.20683        0.66431       -6.43565
C        -11.33187        1.26104       -6.00860
N        -12.20455        0.77751       -5.08184
C        -12.27285        1.18787       -3.77832
S        -13.55640        0.42646       -2.87856
C        -13.21248        1.31919       -1.50315
N        -14.01670        1.23226       -0.31638
O        -13.69992        1.98893        0.61234
O        -14.95166        0.42394       -0.29592
C        -12.10975        2.11096       -1.66355
C        -11.51259        2.03690       -2.96596
C        -10.31545        2.83619       -3.17759
C         -9.95369        3.55116       -4.24777
C         -8.88954        4.50826       -4.34096
O         -7.66511        4.12407       -4.87620
C         -6.98470        5.23152       -5.25869
C         -7.71766        6.35450       -4.97726
N         -7.35217        7.67886       -5.38294
O         -6.37158        7.79360       -6.12835
O         -8.07524        8.60738       -4.99337
C         -8.89137        5.92475       -4.27902
N         -9.85051        6.82119       -3.85647
C        -10.64151        6.85634       -2.70859
C        -10.49299        6.28851       -1.50436
C        -11.47226        6.14196       -0.44722
C        -11.15443        5.14341        0.40743
C         -9.85184        4.53847        0.12453
S         -8.99028        5.60441       -0.99474
C         -9.33047        3.32461        0.41484
C         -9.96254        2.15809        1.00385
C         -9.35266        1.00379        0.66445
C         -8.14256        1.17181       -0.12710
S         -7.72549        2.85307       -0.18828
C         -7.47189        0.17839       -0.73916
C         -6.26153        0.30440       -1.51049
C         -5.03291        0.92660       -1.26306
C         -4.65461        1.65419       -0.05955
O         -3.78296        2.51091       -0.00487
O         -5.28981        1.27165        1.06902
C         -4.11002        0.75234       -2.35798
C         -4.60146       -0.05674       -3.35071
S         -6.20849       -0.52440       -3.03882
H         -8.89422       -3.26947       -6.27841
H         -7.20121        0.28234       -9.41006
H         -7.94892       -5.06411       -8.27901
H        -11.66032        2.23113       -6.35302
H        -12.25087       -0.25482       -5.11162
H        -11.74938        2.75058       -0.87879
H         -9.70901        2.97690       -2.29119
H        -10.49759        3.42763       -5.15866
H         -6.03766        5.06597       -5.75842
H         -9.73628        7.78271       -4.20600
H        -11.49359        7.51619       -2.87438
H        -12.38452        6.72540       -0.40113
H        -11.79273        4.83199        1.22448
H        -10.88797        2.19620        1.56449
H         -9.71603        0.02098        0.93713
H         -7.88601       -0.82567       -0.68538
H         -4.96512        1.91404        1.73057
H         -3.10400        1.16072       -2.36829
H         -4.08421       -0.39209       -4.24084
