91

C          2.07000        2.38478       -2.76633
C          0.77930        2.28073       -2.44265
C         -0.05419        3.35993       -1.98741
C         -1.30610        2.97923       -1.69792
C         -1.55378        1.55861       -1.89440
S         -0.09476        0.77858       -2.52040
C         -2.70021        0.90711       -1.61582
C         -3.91301        1.49433       -1.07691
C         -4.87231        0.60165       -0.79070
C         -4.50536       -0.76806       -1.08437
S         -2.92013       -0.82648       -1.81918
C         -5.28103       -1.82226       -0.77438
C         -4.94563       -3.17953       -1.04342
O         -4.11362       -3.59877       -2.07979
C         -5.34206       -4.33558       -0.42327
C         -6.14648       -4.82065        0.65356
O         -6.87118       -4.18123        1.39144
N         -5.94719       -6.18972        0.63818
C         -5.12082       -6.62623       -0.37904
O         -4.80307       -7.77033       -0.64714
C         -4.73640       -5.42601       -1.04916
C         -3.98419       -4.98348       -2.09904
C         -3.23690       -5.70258       -3.06374
C         -2.20195       -5.12406       -3.68630
C         -1.45479       -5.80767       -4.72762
C         -0.19253       -5.52913       -5.10770
C          0.71673       -4.56496       -4.39112
C          0.42808       -6.27400       -6.26242
N          0.18265       -5.55335       -7.49687
C         -0.91148       -5.72378       -8.31338
C         -1.20538       -5.04356       -9.42815
C         -2.40524       -5.31270      -10.14689
S         -3.79088       -4.39060       -9.79433
C         -2.66270       -6.24407      -11.14289
C         -1.61848       -7.22294      -11.65922
C         -1.54484       -8.53642      -10.86921
N         -0.76314       -9.54895      -11.58469
C         -4.03727       -6.12298      -11.66141
C         -4.57364       -7.07940      -12.71516
C         -5.12982       -8.37709      -12.09997
N         -5.61373       -9.30651      -13.12023
C         -4.70894       -5.01788      -11.10984
C         -6.01949       -4.41573      -11.42108
S         -7.34139       -5.42230      -11.94301
C         -8.43687       -4.12830      -12.11746
C         -7.87523       -2.95330      -11.69999
C         -6.47659       -3.09495      -11.33565
C         -5.71126       -1.97968      -10.93962
C         -6.45117       -0.76610      -10.87872
C         -5.75541        0.47005      -10.45252
O         -6.31290        1.45909      -10.00897
O         -4.43394        0.43567      -10.68732
C         -7.84448       -0.67749      -11.20993
O         -8.54120        0.50779      -11.11201
C         -8.60857       -1.76553      -11.66616
H          2.59775        3.32969       -2.70234
H          2.63946        1.52232       -3.09974
H          0.30753        4.37350       -1.88624
H         -2.05644        3.66622       -1.33527
H         -4.03321        2.55391       -0.90821
H         -5.83409        0.87112       -0.37070
H         -6.22444       -1.65086       -0.26152
H         -6.39538       -6.81870        1.28023
H         -3.51879       -6.73193       -3.26771
H         -1.90792       -4.11182       -3.44021
H         -2.00906       -6.57128       -5.26837
H          0.34396       -4.28182       -3.40179
H          0.85959       -3.65526       -4.98015
H          1.69541       -5.02811       -4.22066
H          0.02863       -7.29346       -6.33172
H          1.50764       -6.38473       -6.11387
H          0.70395       -4.69016       -7.62168
H         -1.58124       -6.50743       -7.96435
H         -0.54337       -4.26908       -9.80311
H         -0.63015       -6.74488      -11.64831
H         -1.81417       -7.43289      -12.71637
H         -2.53821       -8.94310      -10.67735
H         -1.09028       -8.36423       -9.88846
H         -1.16809       -9.70234      -12.50914
H         -0.84653      -10.44046      -11.09634
H         -3.77704       -7.33099      -13.42375
H         -5.33112       -6.59555      -13.33631
H         -5.93289       -8.16414      -11.38655
H         -4.35361       -8.89445      -11.53691
H         -6.40775       -8.88866      -13.60220
H         -5.97008      -10.14661      -12.66250
H         -9.43940       -4.30442      -12.48534
H         -4.66078       -1.99975      -10.68861
H         -4.10048        1.31800      -10.42401
H         -7.98646        1.17264      -10.64929
H         -9.65404       -1.66578      -11.93219
