114

C         -2.67291        5.18006        8.05366
C         -3.35172        4.40391        7.18065
C         -4.77330        4.31419        7.18964
N         -5.92768        4.24255        7.19265
C         -2.68575        3.50444        6.30004
N         -2.15466        2.74781        5.59627
C         -3.24140        5.86057        9.23478
C         -2.29000        5.79195       10.26664
C         -2.51614        6.31485       11.52743
C         -3.70532        7.03069       11.73506
C         -4.63226        7.20073       10.66263
C         -4.40733        6.58144        9.42024
C         -5.75258        8.02153       10.85085
C         -5.98064        8.64609       12.07704
C         -5.10528        8.43868       13.13926
C         -3.97539        7.63583       12.97106
C         -1.00198        5.28748        9.72783
O          0.02421        5.08853       10.34009
C         -1.22449        5.21512        8.24249
C         -0.22957        5.58250        7.41712
C         -0.48406        6.11116        6.11466
C         -0.49126        5.47775        4.87368
C         -0.80505        6.37829        3.83259
C         -1.03056        7.65144        4.30866
S         -0.82293        7.82064        5.94768
C         -1.42992        8.47495        3.23348
C         -1.44475        7.72292        2.07983
C         -1.01559        6.36102        2.38250
C         -0.83491        5.33164        1.53137
C         -1.06958        5.46601        0.13446
N         -1.26932        5.58445       -1.00161
C         -0.38282        4.06171        1.98499
N         -0.00943        3.03380        2.35892
C         -1.91093        8.47069        0.97612
C         -2.26056        9.76949        1.35569
S         -1.94225       10.04292        3.04467
C         -2.87052       10.77153        0.50945
C         -3.67921       10.53181       -0.58273
C         -4.19468       11.71380       -1.23111
C         -3.58789       12.84523       -0.67809
S         -2.66681       12.44444        0.73118
C         -3.72564       14.12435       -1.25128
O         -2.96816       15.14675       -0.68440
C         -3.57802       16.43267       -0.62610
C         -4.48192       14.28327       -2.43293
C         -5.22052       13.19187       -2.89015
C         -5.09082       11.90846       -2.31528
O         -5.74621       10.88249       -2.98935
C         -6.27731        9.81116       -2.22356
S         -6.24653       13.65455       -4.21166
C         -5.54871       15.20155       -4.33553
C         -4.58794       15.37055       -3.36474
C         -5.93266       16.16333       -5.34108
C         -7.18473       16.34051       -5.93224
C         -7.16336       17.40820       -6.85486
C         -5.91543       17.98897       -6.92471
S         -4.76779       17.30947       -5.94402
C         -5.94267       19.02893       -7.87230
C         -7.20192       19.08596       -8.41731
C         -8.06453       18.09675       -7.78103
C         -9.38358       17.90388       -7.98169
C        -10.13542       18.67513       -8.91847
N        -10.74940       19.27606       -9.69040
C        -10.10246       16.91062       -7.25578
N        -10.68862       16.10267       -6.66813
C         -7.27238       20.04320       -9.43882
C         -6.09453       20.78938       -9.53407
S         -4.86746       20.14246       -8.47053
C         -5.75171       21.88668      -10.38103
C         -6.62881       22.79945      -10.83168
C         -6.45189       23.78161      -11.92508
C         -5.33751       24.50398      -12.20418
C         -5.30946       25.49568      -13.22529
N         -5.28701       26.29870      -14.06304
C         -4.13343       24.36656      -11.45244
N         -3.15517       24.24066      -10.84352
C         -7.80131       23.93696      -12.54894
C         -8.74855       23.36644      -11.68723
C         -8.09119       22.82780      -10.49657
O         -8.64627       22.53658       -9.45884
C        -10.09905       23.26377      -11.97039
C        -10.54638       23.77348      -13.18888
C         -9.62018       24.38212      -14.08460
C         -8.24545       24.44692      -13.75977
C        -10.10019       24.90273      -15.29475
C        -11.45508       24.81742      -15.62372
C        -12.35064       24.20222      -14.75342
C        -11.89932       23.68187      -13.54177
H         -1.75617        6.23256       12.29947
H         -5.11453        6.72390        8.60776
H         -6.45061        8.20160       10.03528
H         -6.84332        9.29610       12.20140
H         -5.29405        8.91606       14.09773
H         -3.29766        7.50387       13.81222
H          0.78197        5.69183        7.80688
H         -0.30661        4.41789        4.76306
H         -2.02995        8.10579       -0.03822
H         -3.89235        9.52164       -0.89832
H         -3.08868       17.00589        0.16725
H         -4.65007       16.38992       -0.40718
H         -3.38356       16.98457       -1.54723
H         -6.96005        9.24699       -2.86762
H         -6.83629       10.15226       -1.34684
H         -5.49451        9.10452       -1.95244
H         -3.98856       16.26771       -3.31512
H         -8.04119       15.72627       -5.68282
H         -8.14071       20.22660      -10.05691
H         -4.71999       21.90034      -10.72056
H        -10.76862       22.77393      -11.26795
H         -7.56062       24.87552      -14.48455
H         -9.42260       25.38617      -15.99587
H        -11.81132       25.23087      -16.56396
H        -13.40312       24.12892      -15.01568
H        -12.61458       23.20249      -12.87551
