132

C         13.28875      -12.78181        3.48841
C         14.53320      -13.43642        4.02256
O         15.56282      -13.62697        3.40921
C         14.25660      -13.71896        5.45726
C         12.94032      -13.30565        5.76343
C         12.24211      -13.00980        4.48030
C         10.96512      -13.40007        4.24220
C         10.53860      -13.81764        2.95221
N         10.16871      -14.26859        1.93985
C         10.02463      -13.64368        5.28397
N          9.25348      -13.82199        6.13416
C         12.50333      -13.33950        7.07678
C         13.34413      -13.88854        8.05098
C         14.61935      -14.40055        7.73149
C         15.11429      -14.29839        6.40864
C         16.40142      -14.80889        6.12889
C         17.16036      -15.43316        7.12056
C         16.65793      -15.54709        8.41123
C         15.40148      -15.02433        8.71664
C         13.39207      -11.94901        2.43764
C         12.39145      -10.94130        1.92323
S         12.56771      -10.82270        0.11191
C         13.11516       -9.10260        0.16095
N         12.60779       -8.48289        1.37453
C         12.64874       -9.47981        2.44429
N         11.62813       -9.00899        3.39156
C         10.53063       -8.55619        2.51253
C         11.21836       -8.01203        1.25463
C         11.20865       -6.52002        1.19245
C         10.25137       -5.78664        0.59726
C         10.24356       -4.33170        0.54556
C         11.28735       -3.65262        1.08686
C         11.28145       -2.21741        1.15574
C         12.17957       -1.32946        1.66191
C         13.58865       -1.51780        2.20864
C         14.63667       -0.68120        1.40520
N         16.01929       -0.83279        1.88003
C         13.68292       -1.21726        3.72821
N         12.86429       -2.09476        4.56502
C         11.43508       -0.07014        1.68282
C         11.67630        1.08465        2.31549
C         10.66653        2.21772        2.34474
C          9.44457        1.98768        1.45916
C          9.21325        0.83359        0.81283
C         10.15449       -0.22885        1.00712
C         10.06584       -1.52199        0.69089
C          9.01032       -2.24492        0.02906
C          9.11047       -3.58446       -0.04566
C         11.33188        3.51666        1.98156
C         12.32912        4.08306        2.68683
C         12.97182        5.39538        2.34233
S         14.70468        5.39653        2.88155
C         14.66721        7.17193        3.18863
N         13.34456        7.47962        3.68650
C         12.34543        6.61409        3.07014
N         11.55571        7.46539        2.17871
C         11.49574        8.73359        2.91110
C         12.92369        8.86875        3.46836
C         13.01160        9.68045        4.73507
C         13.45056        9.19266        5.90734
C         13.52778        9.96280        7.11403
C         13.45764        9.49862        8.36930
C         13.82735       10.46760        9.44943
O         13.91657       11.67317        9.33185
C         14.11087        9.65385       10.65063
C         13.88457        8.29097       10.35788
C         13.29292        8.17631        8.98864
C         12.53815        7.13131        8.56015
C         11.64059        7.21768        7.46720
N         10.83187        7.24708        6.61781
C         12.47051        5.87720        9.24716
N         12.41611        4.85689        9.78144
C         14.15527        7.34814       11.33704
C         14.56257        7.77560       12.60534
C         14.73814        9.13870       12.90885
C         14.53785       10.11725       11.90886
C         14.75870       11.47312       12.24048
C         15.13628       11.84793       13.53010
C         15.30206       10.87984       14.51257
C         15.10985        9.53421       14.20233
H         11.52451      -12.98124        7.38044
H         12.97923      -13.94439        9.07676
H         16.82032      -14.74768        5.12610
H         18.13982      -15.83849        6.87852
H         17.24182      -16.04544        9.18111
H         15.02917      -15.12568        9.73443
H         14.35947      -11.92559        1.92778
H         11.36682      -11.25888        2.12864
H         12.82213       -8.56049       -0.74455
H         14.21119       -9.09347        0.18796
H         13.62509       -9.42826        2.94471
H         12.02295       -8.15589        3.79773
H          9.89248       -7.83085        3.02861
H          9.90609       -9.41682        2.24860
H         10.70609       -8.39842        0.36784
H         12.05439       -6.03936        1.67426
H          9.38976       -6.27303        0.14605
H         12.09527       -4.17175        1.57499
H         13.87857       -2.56831        2.07704
H         14.40089        0.38627        1.45426
H         14.61882       -0.96622        0.34471
H         16.08989       -0.49066        2.83780
H         16.62552       -0.21791        1.33601
H         13.40644       -0.18256        3.93568
H         14.71678       -1.31521        4.06856
H         11.92033       -2.15861        4.18680
H         12.77917       -1.70055        5.50155
H         12.57463        1.22980        2.89758
H         10.29004        2.30542        3.37323
H          8.72115        2.79317        1.36775
H          8.33703        0.68059        0.19550
H          8.16256       -1.71547       -0.38736
H          8.31864       -4.15179       -0.52717
H         10.92953        4.00754        1.10025
H         12.71614        3.56541        3.56299
H         12.97524        5.54672        1.25700
H         14.88586        7.67633        2.24403
H         15.43696        7.43937        3.91974
H         11.69821        6.29249        3.89438
H         10.62200        7.06608        2.09550
H         10.72557        8.67250        3.68968
H         11.24211        9.55336        2.23117
H         13.54067        9.35016        2.69960
H         12.67484       10.71289        4.66538
H         13.76430        8.15452        5.96612
H         13.73627       11.02348        6.95373
H         14.05392        6.28032       11.18312
H         14.73340        7.02088       13.37308
H         14.63145       12.25913       11.49860
H         15.29278       12.89791       13.76421
H         15.58312       11.17033       15.52138
H         15.24687        8.79279       14.98700
