110

C          8.75026       -7.04885        6.80001
C          8.70986       -8.26994        7.49306
C          7.81992       -9.29413        7.12336
C          6.99127       -9.14662        6.01495
C          7.07761       -7.96454        5.30078
C          7.90788       -6.88397        5.71286
C          7.53580       -5.68329        4.87726
C          8.32174       -4.66031        4.47875
C          9.70164       -4.60344        4.82010
N         10.83749       -4.58528        5.05754
C          7.85295       -3.70208        3.53341
N          7.44108       -2.94480        2.75495
C          6.22675       -6.04440        4.27766
C          6.31931       -7.50930        4.11842
C          6.09536       -8.18845        2.98255
C          5.68670       -7.50549        1.79568
N          5.39484       -6.89256        0.85586
C          6.39937       -9.57290        2.86059
N          6.67947      -10.69270        2.76270
C          5.09423       -5.30968        4.23165
C          3.76452       -5.95515        4.00558
N          3.61327       -7.25952        3.96898
C          2.29229       -7.44119        3.79468
C          1.61884       -6.17524        3.75330
C          0.15907       -6.44540        3.62704
O         -0.75672       -5.65356        3.57969
C          0.09619       -7.93187        3.59410
C          1.43353       -8.44817        3.70636
N          1.42329       -9.80546        3.72257
C          0.15316      -10.08088        3.60968
C         -0.77451       -8.93035        3.51349
C          2.48659       -5.16843        3.88328
C          2.21290       -3.77819        4.09280
C          2.94320       -2.72895        3.67369
C          2.56487       -1.41729        4.09283
S          1.67984       -0.39335        3.02441
C          1.45377        0.82847        4.24045
C          1.72799        0.25960        5.48154
C          2.72778       -0.77433        5.30929
C          3.59672       -1.19607        6.33418
C          4.96471       -1.79307        6.18954
F          5.37482       -1.97706        4.90719
F          5.92000       -0.99479        6.75172
F          5.09598       -3.00272        6.79806
C          3.19131       -0.70059        7.59914
C          2.10871        0.20070        7.79926
C          1.36931        0.78430        6.74722
O          0.37172        1.70452        6.89532
C          0.14782        2.17483        8.22268
C          1.09846        2.15142        3.81127
C          1.52485        3.20589        4.52079
C          1.30274        4.65719        4.35923
N          1.67113        5.44196        5.35128
C          1.22418        6.65959        4.97653
C          0.56645        6.57873        3.69792
C          0.04787        7.94334        3.36657
O         -0.68731        8.29891        2.47154
C          0.49903        8.75226        4.52200
C          1.18148        7.89867        5.45355
N          1.54755        8.60786        6.55311
C          1.11529        9.80780        6.27719
C          0.43449        9.99579        4.97842
C          0.61747        5.33475        3.20839
C          0.21825        4.84189        1.91188
C         -0.82511        5.37219        1.25833
C         -1.35608        5.13619       -0.06282
C         -0.82166        5.21095       -1.29822
C         -1.63011        4.99857       -2.54468
C         -2.87825        5.46807       -2.80364
C         -3.63398        6.20346       -1.84483
N         -4.26209        6.78493       -1.06098
C         -3.51209        5.34604       -4.07468
N         -4.03844        5.25282       -5.10473
C         -0.69831        4.36674       -3.52877
C          0.62894        4.44963       -3.02417
C          1.67588        3.89276       -3.75421
C          1.41476        3.30313       -4.99509
C          0.11258        3.23485       -5.49088
C         -0.95238        3.74559       -4.75007
C          0.60607        5.19921       -1.71480
C          1.65322        5.88957       -1.20436
C          1.53068        6.88956       -0.20217
N          1.55517        7.74293        0.58377
C          2.98420        5.75678       -1.68968
N          4.08509        5.63824       -2.04598
H          9.40958       -6.26271        7.15362
H          9.35650       -8.42391        8.35569
H          7.76836      -10.20858        7.71213
H          6.27719       -9.92299        5.75430
H          5.09405       -4.26592        4.50597
H         -0.25615      -11.10262        3.59198
H         -1.84227       -8.94138        3.42950
H          1.29224       -3.59151        4.65379
H          3.81703       -2.83825        3.03846
H          3.77441       -0.98354        8.47941
H          1.91415        0.48289        8.83239
H         -0.66474        2.90582        8.19618
H          1.03863        2.67598        8.61810
H         -0.16641        1.35771        8.88236
H          0.56748        2.26879        2.87549
H          2.09389        3.03145        5.43444
H          1.21663       10.66891        6.95468
H         -0.00664       10.88159        4.56845
H          0.83808        4.08002        1.45106
H         -1.44508        6.10506        1.78231
H         -2.43065        4.96747        0.02983
H          2.70335        3.88722       -3.40895
H          2.23408        2.88879       -5.57941
H         -0.07499        2.77065       -6.45785
H         -1.94853        3.63129       -5.16208
