99

C          1.88273        1.73500       -2.95054
C          3.05043        2.38214       -2.73730
C          3.87273        2.81300       -3.81733
N          4.54345        3.12511       -4.71192
C          3.60771        2.47291       -1.42550
N          4.07366        2.47040       -0.36211
C          1.36595        1.25962       -4.24782
C          0.78919       -0.00372       -4.03344
C          0.19785       -0.73907       -5.04171
C          0.06260       -0.12722       -6.29452
C          0.53968        1.20416       -6.49905
C          1.23544        1.87787       -5.47775
C          0.25833        1.84676       -7.71239
C         -0.45765        1.19269       -8.71620
C         -0.87051       -0.12467       -8.53630
C         -0.60731       -0.78348       -7.33512
C          0.69005       -0.26687       -2.57710
O          0.25613       -1.25660       -2.02945
C          1.09594        1.03195       -1.94426
C          0.40020        1.45630       -0.87990
C          0.24418        2.89222       -0.53192
N          0.76430        3.90564       -1.18324
C          0.28093        4.99135       -0.52286
C         -0.55804        4.57712        0.57152
C         -1.09481        5.77407        1.26125
O         -1.81739        5.83794        2.23121
C         -0.51400        6.87835        0.46229
C          0.30112        6.31819       -0.58737
N          0.82630        7.31799       -1.34360
C          0.35654        8.39470       -0.77155
C         -0.52149        8.20288        0.40275
C         -0.63575        3.25458        0.62724
C         -1.38082        2.40061        1.49717
C         -1.23837        2.44660        2.83040
C         -1.90050        1.62979        3.81543
C         -1.27354        1.30148        5.00658
C          0.05363        1.65455        5.40123
N          1.13146        1.96547        5.70998
S         -2.26478        0.36170        6.01341
C         -3.58484        0.41674        4.93159
C         -3.23498        1.07395        3.75436
C         -4.12471        1.20557        2.62700
N         -4.76613        1.33388        1.66530
C         -4.83110       -0.24941        5.26358
N         -5.64596       -0.59016        4.29005
C         -6.66148       -1.22648        4.91543
C         -6.43689       -1.26144        6.33456
C         -7.58249       -1.95542        6.97825
O         -7.77380       -2.19240        8.14942
C         -8.43949       -2.30196        5.81547
C         -7.80828       -1.82380        4.61363
N         -8.57173       -2.12180        3.53201
C         -9.59089       -2.74010        4.06054
C         -9.58897       -2.90075        5.53182
C         -5.30471       -0.63904        6.64931
C         -4.74466       -0.35120        7.94045
C         -4.40934       -1.30030        8.82841
C         -3.86392       -1.03115       10.14836
C         -2.67780       -1.46818       10.60844
C         -2.10672       -1.46766       11.97947
C         -2.33978       -0.56248       12.96137
C         -1.66941       -0.59194       14.21802
N         -1.12901       -0.61644       15.24474
C         -3.22621        0.53925       12.78320
N         -3.94535        1.43674       12.62959
C         -1.07597       -2.55596       12.00901
C         -0.85518       -2.97720       10.69116
C         -1.72761       -2.25693        9.75560
O         -1.64514       -2.29119        8.54540
C          0.04185       -3.97254       10.33861
C          0.77023       -4.59785       11.35269
C          0.57864       -4.20314       12.70601
C         -0.35939       -3.18763       13.02294
C          1.34091       -4.84034       13.70129
C          2.26062       -5.84202       13.37451
C          2.42924       -6.23139       12.04949
C          1.68731       -5.61326       11.04423
H         -0.23036       -1.71416       -4.82908
H          1.58724        2.89509       -5.63135
H          0.56555        2.87800       -7.87648
H         -0.69720        1.71552       -9.63883
H         -1.41766       -0.63498       -9.32497
H         -0.95772       -1.80605       -7.20991
H         -0.24617        0.75444       -0.36007
H          0.56985        9.41933       -1.11404
H         -1.01578        8.94250        1.00085
H         -2.05292        1.70084        1.00803
H         -0.51163        3.16449        3.22002
H        -10.43535       -3.14132        3.48033
H        -10.32381       -3.36867        6.15433
H         -4.57832        0.69899        8.17277
H         -4.54346       -2.35356        8.58182
H         -4.57593       -0.53219       10.80155
H          0.15794       -4.25191        9.29515
H         -0.49946       -2.93358       14.06965
H          1.23420       -4.55695       14.74692
H          2.84825       -6.31840       14.15612
H          3.14132       -7.01299       11.79554
H          1.83519       -5.93060       10.01366
