136

C          0.02014        2.56096        7.86978
C          0.89481        3.55589        7.59926
C          1.71311        3.54468        6.43231
N          2.35498        3.51981        5.46564
C          1.17452        4.57167        8.55870
N          1.46910        5.35623        9.36122
C          0.02500        1.24283        7.21457
C         -0.20141        0.28386        8.21668
C         -0.13831       -1.07189        7.97199
C          0.09494       -1.48260        6.65208
C          0.21437       -0.51599        5.60679
C          0.18269        0.85405        5.89901
C          0.36831       -0.94549        4.28413
C          0.43793       -2.30498        3.98675
C          0.36329       -3.24841        5.00851
C          0.18896       -2.84169        6.33227
C         -0.63069        0.95170        9.46940
O         -0.90522        0.43320       10.52899
C         -0.77714        2.39243        9.08002
C         -1.83546        3.05562        9.57301
C         -2.48713        4.14426        8.93145
S         -2.53103        4.42530        7.23414
C         -3.50456        5.84171        7.36507
C         -3.87357        5.94031        8.66226
C         -3.33538        5.02014        9.55503
S         -3.84259        5.17718       11.26233
C         -4.80384        6.55551       10.73082
C         -5.61017        7.30743       11.69460
O         -6.18386        8.35427       11.38569
C         -5.73807        6.78298       13.11402
C         -4.58366        7.25433       13.97870
C         -4.70898        6.84661        9.35937
C         -3.85373        6.65326        6.26449
C         -3.05653        6.77665        5.19706
C         -3.36529        7.56683        4.02452
C         -4.65825        7.70100        3.63102
C         -4.95113        8.21921        2.32062
C         -6.12261        8.27340        1.63400
C         -7.55596        8.00108        2.07676
C         -7.78635        6.51987        2.48463
N         -9.19806        6.19609        2.72805
C         -7.98322        9.00869        3.19101
N         -9.37739        8.87823        3.64296
C         -5.68983        8.54362        0.25646
C         -6.31583        8.36860       -0.91630
C         -5.57463        8.47531       -2.25299
C         -4.10829        8.88912       -2.12457
C         -3.50394        9.11608       -0.95147
C         -4.26096        8.83816        0.22888
C         -3.81832        8.61886        1.46664
C         -2.47019        8.61081        1.96623
C         -2.26601        8.08069        3.18237
C         -6.33408        9.38211       -3.18204
C         -5.78724       10.19311       -4.10018
C         -6.61209       11.00731       -4.88259
S         -7.24145       10.53437       -6.39056
C         -8.05969       12.04506       -6.63214
C         -7.79931       12.82830       -5.54433
C         -6.98205       12.27693       -4.55997
S         -6.59266       13.28557       -3.12392
C         -7.58987       14.51459       -3.86998
C         -7.82002       15.80229       -3.20669
O         -8.71437       16.56396       -3.58299
C         -6.87993       16.24259       -2.09086
C         -7.55534       17.19183       -1.11659
C         -8.14836       14.14433       -5.10788
C         -8.79291       12.19357       -7.83705
C         -9.43750       13.32553       -8.12752
C        -10.17217       13.52773       -9.34747
C        -10.82724       14.64794       -9.68452
C        -11.65027       14.90449      -10.88240
C        -11.50260       14.33725      -12.10733
C        -12.29623       14.71762      -13.22952
N        -12.93885       15.02179      -14.14022
C        -10.50602       13.36336      -12.39901
N         -9.68956       12.56241      -12.64181
C        -12.55506       16.03850      -10.52646
C        -12.13165       16.58793       -9.30948
C        -11.00231       15.83096       -8.76742
O        -10.38277       16.13629       -7.77000
C        -12.74649       17.66137       -8.68522
C        -13.86393       18.22402       -9.30537
C        -14.33335       17.68340      -10.53347
C        -13.67616       16.58538      -11.13168
C        -15.46151       18.25540      -11.13825
C        -16.11745       19.33561      -10.54608
C        -15.65814       19.85975       -9.34086
C        -14.53701       19.30641       -8.72177
H         -0.29574       -1.77986        8.77999
H          0.26959        1.58529        5.09976
H          0.43734       -0.22517        3.47088
H          0.55717       -2.62631        2.95528
H          0.43445       -4.30708        4.77333
H          0.12747       -3.59811        7.11177
H         -2.33589        2.64255       10.45004
H         -5.81119        5.69067       13.10580
H         -6.68888        7.13486       13.52874
H         -3.61313        7.12327       13.49003
H         -4.56667        6.69984       14.92128
H         -4.68754        8.31955       14.20619
H         -5.24163        7.67832        8.90746
H         -4.77985        7.21742        6.33137
H         -2.10266        6.25519        5.14087
H         -5.47823        7.28622        4.20031
H         -8.21436        8.19996        1.21992
H         -7.23178        6.28050        3.39654
H         -7.42480        5.85335        1.69513
H         -9.54876        6.88272        3.41367
H         -9.27101        5.29040        3.18795
H         -7.84714       10.03244        2.82200
H         -7.34552        8.89660        4.07391
H         -9.99902        8.96346        2.83553
H         -9.61026        9.65545        4.26178
H         -7.34621        8.02942       -0.94448
H         -5.58513        7.47046       -2.69539
H         -3.51492        8.99256       -3.02751
H         -2.46607        9.41952       -0.88884
H         -1.64979        8.97087        1.35806
H         -1.25409        8.00889        3.57186
H         -7.41978        9.34522       -3.09294
H         -4.71997       10.27063       -4.26857
H         -6.01341       16.72696       -2.55443
H         -6.52536       15.39020       -1.50950
H         -7.81668       18.13866       -1.59884
H         -6.88505       17.40795       -0.27898
H         -8.47389       16.74992       -0.71609
H         -8.77932       14.84384       -5.64315
H         -8.80985       11.36202       -8.53933
H         -9.41081       14.14988       -7.43450
H        -10.18149       12.65814       -9.99662
H        -12.36880       18.03012       -7.73493
H        -14.08386       16.18157      -12.05264
H        -15.84169       17.86482      -12.07976
H        -16.99059       19.76892      -11.02872
H        -16.17278       20.69948       -8.88094
H        -14.19567       19.72816       -7.77785
