92

C          0.94602        5.35092        2.15359
C          1.88751        5.32771        1.17811
C          3.26729        5.57471        1.43081
N          4.39240        5.77545        1.63258
C          1.58263        4.99100       -0.17427
N          1.32298        4.72699       -1.27137
C          1.17884        5.56366        3.61626
C          0.04932        5.11849        4.30822
C         -0.10132        5.18631        5.68748
C          0.96376        5.72931        6.43626
C          2.10775        6.17491        5.75577
C          2.22973        6.11546        4.34192
S          3.28873        6.77951        6.86510
C          2.30019        6.45786        8.19495
C          1.08703        5.92415        7.85396
Br         2.81420        6.79607        9.96413
C         -0.97339        4.62324        3.37936
O         -1.97291        4.01542        3.69861
C         -0.48788        5.00062        2.01065
C         -1.30573        5.15614        0.95709
C         -2.70654        4.92154        1.00733
C         -3.41634        3.77095        0.66124
C         -4.80794        3.99823        0.71411
C         -5.09019        5.27175        1.15197
S         -3.76732        6.22270        1.46405
C         -6.48583        5.45044        1.16663
C         -7.09282        4.29799        0.72423
C         -6.06253        3.30444        0.41075
C         -6.22244        2.05990       -0.07972
C         -5.10906        1.21955       -0.35870
N         -4.19979        0.53776       -0.59329
C         -7.50779        1.52629       -0.36974
N         -8.55151        1.08376       -0.61790
C         -8.49616        4.44310        0.69243
C         -8.89095        5.71552        1.12947
S         -7.51416        6.68754        1.55617
C        -10.25229        6.25819        1.24433
C        -10.57143        7.53632        1.69976
N        -11.84456        8.00509        1.79369
C        -12.81955        7.14751        1.41004
C        -12.49992        5.86931        0.95554
N        -11.22834        5.40104        0.86380
C        -14.18390        7.68383        1.51089
C        -14.59972        8.94196        1.96925
C        -16.00190        9.07870        1.89529
C        -16.58429        7.94186        1.38392
S        -15.53995        6.71525        1.01356
C        -17.97621        8.12247        1.31701
C        -18.28225        9.37343        1.79710
C        -17.04987       10.06176        2.18434
C        -16.92357       11.30836        2.67200
C        -15.65507       11.85298        3.02225
N        -14.62738       12.30124        3.31533
C        -18.05529       12.14676        2.85685
N        -19.00697       12.80332        2.98401
C        -19.67437        9.58912        1.80312
C        -20.36230        8.50349        1.25313
S        -19.27222        7.21016        0.83233
C        -21.75477        8.29059        1.06453
C        -22.64376        9.24112        0.74899
C        -22.57706       10.67546        0.43547
C        -21.67939       11.30252       -0.36546
C        -21.71875       12.70105       -0.63171
N        -21.73423       13.84274       -0.83929
C        -20.66583       10.60035       -1.08397
N        -19.84064       10.06237       -1.69666
C        -23.86781       11.26175        0.90220
C        -24.75924       10.21247        1.15212
C        -24.08195        8.91354        1.01443
O        -24.58640        7.82066        1.16402
C        -26.08794       10.39197        1.51515
C        -26.56306       11.71873        1.61578
C        -25.66326       12.77585        1.40748
C        -24.30179       12.56880        1.07634
S        -26.44416       14.30558        1.59150
C        -27.93635       13.57803        1.88981
C        -27.88238       12.20999        1.90399
Br       -29.51040       14.55294        2.17039
H         -1.01570        4.84166        6.16290
H          3.12965        6.50874        3.88241
H          0.31688        5.66439        8.57064
H         -0.95206        5.55021        0.01055
H         -2.92132        2.85633        0.35852
H         -9.21693        3.69710        0.37414
H         -9.81590        8.24838        2.01221
H        -13.25417        5.15687        0.64065
H        -13.89426        9.68762        2.32064
H        -20.17714       10.47156        2.17601
H        -22.11828        7.28396        1.28139
H        -26.73577        9.53817        1.69513
H        -23.65765       13.43162        0.95058
H        -28.73975       11.57381        2.08800
