95

C         -8.21754       -0.86492        3.38348
C         -9.46603       -0.57776        3.82000
C        -10.31025       -1.55085        4.43510
N        -10.99533       -2.34776        4.93124
C         -9.98639        0.74159        3.77381
N        -10.40328        1.82909        3.72533
C         -7.51878       -2.17251        3.57299
C         -6.14809       -1.91703        3.61041
C         -5.19234       -2.93211        3.66211
C         -5.63734       -4.28189        3.65376
C         -7.01863       -4.53139        3.66813
C         -7.97903       -3.48753        3.63496
S         -7.34768       -6.23038        3.70257
C         -5.70776       -6.61645        3.60417
C         -4.89255       -5.51495        3.58471
Br        -5.07273       -8.37869        3.52067
C         -5.90085       -0.45924        3.43248
O         -4.88937        0.13139        3.73899
C         -7.17731        0.10092        2.87174
C         -7.39397        1.07086        1.95713
C         -6.50609        1.92054        1.17615
C         -5.23587        1.82563        0.61656
O         -4.33485        0.81973        0.80520
C         -4.79027       -0.50751        0.61904
C         -4.84440        2.95803       -0.23132
O         -3.61472        2.85363       -0.81937
C         -3.01414        3.96003       -1.44679
C         -5.88395        3.86935       -0.45059
S         -7.18569        3.45340        0.63034
C         -6.10318        5.00453       -1.43085
C         -7.12898        5.03640       -2.41373
C         -7.17988        6.00702       -3.50988
N         -8.17337        5.92621       -4.41637
C         -9.20119        5.07137       -4.20498
C         -9.19466        4.21120       -3.13910
N         -8.13376        4.14350       -2.29234
C        -10.31695        3.39078       -2.79597
N        -11.24549        2.75243       -2.51475
C        -10.28895        5.16255       -5.13226
N        -11.18048        5.21683       -5.87415
C         -6.24460        7.04955       -3.66644
C         -5.29804        7.14826       -2.60177
C         -5.25966        6.14874       -1.45225
N         -4.36468        6.50118       -0.51326
S         -3.56431        7.84438       -1.04929
N         -4.34620        8.08688       -2.47542
C         -6.24670        8.10772       -4.73580
C         -7.25573        8.84042       -5.35629
O         -8.55672        8.53106       -5.08922
C         -9.53504        9.12602       -5.93244
C         -6.73899        9.94432       -6.16456
O         -7.59022       10.70959       -6.91261
C         -7.30628       12.07943       -7.12166
C         -5.34134       10.03894       -6.10862
S         -4.76547        8.52531       -5.50778
C         -4.46038       11.08784       -6.55439
C         -3.18035       11.04792       -6.95029
C         -2.13346       10.03384       -7.01797
C         -1.58642        9.39850       -5.95169
C         -0.53626        8.44669       -6.06844
N          0.30361        7.65300       -6.17654
C         -1.90561        9.80129       -4.61822
N         -2.09052       10.19701       -3.54337
C         -1.36137       10.29309       -8.26144
C         -1.61182       11.61854       -8.63802
C         -2.70499       12.18568       -7.81837
O         -3.16131       13.30689       -7.89448
C         -0.91119       12.27087       -9.64375
C          0.11976       11.55038      -10.29474
C          0.31799       10.19972       -9.96176
C         -0.44057        9.53645       -8.96900
S          1.60599        9.51027      -10.88309
C          1.94080       10.98342      -11.63274
C          1.07509       11.98394      -11.27888
Br         3.36590       11.22075      -12.82462
H         -4.13208       -2.69547        3.63674
H         -9.03199       -3.75178        3.60455
H         -3.81286       -5.57247        3.51137
H         -8.43275        1.20870        1.65551
H         -4.27143       -0.98075       -0.21802
H         -5.86670       -0.61860        0.46569
H         -4.47928       -1.07044        1.49990
H         -2.76383        4.75133       -0.73833
H         -3.59898        4.29878       -2.30280
H         -2.05469        3.62429       -1.85484
H        -10.48710        8.61685       -5.75430
H         -9.30704        9.00194       -6.99751
H         -9.67650       10.17873       -5.66687
H         -8.20810       12.54485       -7.53457
H         -6.53294       12.21216       -7.88347
H         -7.07196       12.59762       -6.18665
H         -4.91594       12.06962       -6.63791
H         -1.11967       13.30954       -9.88594
H         -0.24250        8.49196       -8.75106
H          1.13076       12.99365      -11.66775
