109

C         -9.70212       -3.14252       12.94462
C        -11.06916       -2.90432       12.82432
F        -11.63873       -1.96206       13.58733
C        -11.83580       -3.62156       11.91667
F        -13.14453       -3.36473       11.78543
C        -11.25657       -4.61057       11.13160
C         -9.88825       -4.88027       11.24648
C         -9.08348       -4.11968       12.15031
C         -7.68606       -4.32662       12.20802
C         -7.10083       -5.27637       11.38128
C         -7.93173       -6.02718       10.53223
C         -9.30174       -5.86369       10.45050
C         -7.13595       -6.85896        9.62105
O         -7.55807       -7.73664        8.89953
C         -5.74415       -6.33866        9.76909
C         -5.68428       -5.63070       11.06992
C         -4.60921       -5.47993       11.88073
C         -3.31302       -5.98928       11.52461
N         -2.25429       -6.38245       11.23387
C         -4.69907       -4.86879       13.16733
N         -4.79382       -4.35959       14.20768
C         -4.89457       -6.29650        8.73287
C         -5.06672       -6.91079        7.40005
C         -5.53634       -6.26610        6.21851
O         -6.06628       -5.00379        6.43637
C         -7.17727       -4.61468        5.62975
C         -5.32572       -6.81790        4.90524
O         -5.73399       -6.05705        3.82613
C         -6.44885       -6.72668        2.77935
C         -4.53284       -7.98225        4.68558
C         -4.24645       -8.76162        5.85215
C         -4.54281       -8.22068        7.23295
N         -4.19749       -9.06855        8.22054
S         -3.67062      -10.45568        7.49242
N         -3.63715       -9.95823        5.91909
C         -3.86198       -8.28843        3.40317
C         -3.57253       -9.47586        2.77300
C         -2.80163       -9.28848        1.56365
N         -2.23772      -10.33140        0.88819
C         -2.53311      -11.53944        1.45287
C         -1.91083      -12.71131        0.79463
O         -1.29441      -12.63614       -0.26168
C         -2.03289      -14.02054        1.46411
C         -2.79170      -14.18613        2.54772
C         -3.55872      -13.07117        3.13722
O         -4.32430      -13.30420        4.06378
C         -3.34044      -11.71508        2.57629
N         -3.92448      -10.69562        3.26361
C         -2.75937       -7.96441        1.13177
S         -3.18336       -6.98073        2.47320
C         -2.35796       -7.39231       -0.18900
C         -1.77596       -6.10678       -0.49257
O         -1.61772       -5.27136        0.59566
C         -1.79078       -3.86136        0.48912
C         -1.22564       -5.78057       -1.79046
O         -0.56252       -4.57434       -1.92476
C         -0.83091       -3.77344       -3.08622
C         -1.12488       -6.74291       -2.83411
C         -1.75425       -7.99112       -2.59353
C         -2.48398       -8.26463       -1.31444
N         -3.24887       -9.36820       -1.41160
S         -2.73297      -10.21079       -2.72889
N         -1.74473       -9.07121       -3.39420
C         -0.29415       -6.53963       -4.03223
C         -0.40501       -6.98224       -5.29113
C          0.79274       -6.77491       -6.16525
O          1.69426       -5.97522       -6.02575
C          0.67744       -7.78290       -7.22343
C          1.58559       -7.98451       -8.24482
C          1.29544       -8.98056       -9.17693
C          0.15540       -9.82134       -8.99105
C         -0.11474      -10.82440       -9.92965
C          0.68485      -10.94937      -11.06053
C          1.77251      -10.10866      -11.25482
C          2.09763       -9.14105      -10.31166
F          2.51236      -10.20963      -12.36698
F          0.37720      -11.87525      -11.97807
C         -0.71792       -9.60843       -7.90933
C         -0.50134       -8.52887       -7.06928
C         -1.31984       -7.87630       -6.01175
C         -2.67085       -7.93952       -5.91843
C         -3.42257       -7.02541       -5.11912
N         -4.03913       -6.28229       -4.48014
C         -3.45056       -8.92544       -6.59873
N         -4.06964       -9.75313       -7.11201
H         -9.13444       -2.54698       13.65454
H        -11.88326       -5.14929       10.42510
H         -7.08914       -3.69073       12.85654
H         -9.87397       -6.44914        9.73453
H         -3.94808       -5.76825        8.82021
H         -7.55127       -3.66305        6.01947
H         -7.98890       -5.34772        5.68149
H         -6.90025       -4.39969        4.59610
H         -6.15889       -7.76469        2.59986
H         -6.26088       -6.16840        1.85466
H         -7.52120       -6.69890        2.98227
H         -1.47925      -14.84061        1.02024
H         -2.89046      -15.14834        3.03872
H         -2.82155       -3.58789        0.73189
H         -1.54658       -3.40057       -0.46271
H         -1.13193       -3.40240        1.23365
H         -1.40798       -2.88778       -2.80171
H         -1.37459       -4.27487       -3.89171
H          0.13516       -3.42692       -3.47027
H          0.59390       -5.94404       -3.79764
H          2.46443       -7.35030       -8.32345
H         -0.96678      -11.49037       -9.81805
H          2.95419       -8.49819      -10.49434
H         -1.56799      -10.27084       -7.78047
