129

C        -11.49119        2.01829        0.67656
C        -12.78917        2.02768        1.17612
F        -13.73147        2.72215        0.52507
C        -13.11651        1.30449        2.31517
F        -14.38053        1.28208        2.75799
C        -12.14426        0.58314        2.99815
C        -10.83117        0.55550        2.51446
C        -10.50130        1.25999        1.31115
C         -9.22247        1.13807        0.73113
C         -8.29934        0.30189        1.32830
C         -8.62899       -0.30589        2.54910
C         -9.85799       -0.19810        3.16848
C         -7.54203       -1.20170        2.94566
O         -7.17168       -1.40676        4.07850
C         -6.86004       -1.52332        1.65686
C         -7.01061       -0.28615        0.86405
C         -6.09997        0.27123        0.03390
C         -4.85623       -0.35459       -0.24135
N         -3.83880       -0.87361       -0.49334
C         -6.30688        1.54980       -0.55462
N         -6.49632        2.59399       -1.03025
C         -6.56711       -2.75769        1.21499
C         -6.77487       -4.07868        1.89822
C         -7.98326       -4.20697        2.75626
C         -7.90232       -4.01277        4.13737
C         -9.06355       -3.90585        4.90455
C        -10.31667       -4.10732        4.32111
C        -10.41289       -4.36399        2.94981
C         -9.25139       -4.37998        2.16515
C        -11.54516       -4.01304        5.14397
O        -12.66214       -3.76353        4.74541
O        -11.28352       -4.25623        6.44313
C         -5.94951       -5.14740        1.65049
C         -4.91170       -4.88373        0.56741
C         -3.66000       -4.32389        0.86407
C         -2.67340       -4.22838       -0.12193
C         -2.94662       -4.62449       -1.43542
C         -4.22328       -5.10049       -1.76240
C         -5.19650       -5.23617       -0.76270
C         -1.82240       -4.62149       -2.40822
O         -0.66628       -4.81791       -2.07236
O         -2.18636       -4.39326       -3.68663
C         -5.94373       -6.57524        2.22964
C         -4.72385       -7.26898        2.37370
C         -4.62269       -8.69944        2.27830
N         -3.39269       -9.24611        2.30060
C         -2.30996       -8.49245        2.55700
C         -2.42561       -7.15181        2.75043
N         -3.61725       -6.53899        2.63735
C         -5.74801       -9.56276        2.22105
C         -6.92268       -8.91296        2.66639
C         -7.05146       -7.38763        2.59495
N         -8.30417       -7.02082        2.88493
S         -9.11994       -8.32298        3.47577
N         -8.01224       -9.51065        3.18214
C         -5.70106      -11.07104        1.95415
C         -4.40987      -11.75356        2.31051
C         -3.38497      -11.90878        1.36138
C         -2.13560      -12.39741        1.75135
C         -1.92769      -12.81091        3.07174
C         -2.93785      -12.64842        4.01993
C         -4.15439      -12.08022        3.64589
C         -0.59596      -13.31867        3.45757
O          0.44270      -12.88754        2.96545
O         -0.62860      -14.30662        4.37126
C         -6.66488      -11.86721        1.34830
C         -7.92549      -11.33946        0.66662
C         -8.01447      -10.09449        0.01561
C         -9.23667       -9.60617       -0.49022
C        -10.38557      -10.39980       -0.45177
C        -10.29201      -11.68574        0.07610
C         -9.08467      -12.14031        0.62983
C        -11.66765       -9.86638       -0.98357
O        -11.84301       -8.75390       -1.44418
O        -12.66720      -10.76471       -0.90816
C         -6.44660      -13.35896        1.23882
C         -6.29808      -14.27340        2.22032
C         -5.72245      -15.64252        1.96899
O         -5.69971      -16.26125        0.92760
C         -5.11752      -16.05786        3.26506
C         -4.47955      -17.24583        3.57688
C         -3.97165      -17.40707        4.88142
C         -4.00615      -16.31564        5.80190
C         -3.44929      -16.45721        7.08081
C         -2.94805      -17.68862        7.48374
C         -2.97280      -18.77321        6.61891
C         -3.45679      -18.63619        5.31874
F         -2.54255      -19.97185        7.03418
F         -2.47240      -17.82450        8.72881
C         -4.66208      -15.13025        5.45307
C         -5.29797      -15.05058        4.22212
C         -6.31268      -14.11438        3.67436
C         -7.37082      -13.75877        4.43563
C         -8.68667      -13.94028        3.91029
N         -9.72092      -14.26141        3.51900
C         -7.27154      -13.53787        5.83703
N         -7.12413      -13.33181        6.97089
H        -11.27785        2.58256       -0.22750
H        -12.43732        0.01808        3.88012
H         -9.01415        1.63072       -0.21474
H        -10.06452       -0.75936        4.07494
H         -6.22265       -2.83593        0.18547
H         -6.94144       -3.81534        4.60902
H         -8.97818       -3.61865        5.94969
H        -11.37967       -4.55836        2.48943
H         -9.33450       -4.57399        1.09748
H        -12.14509       -4.16964        6.90055
H         -3.41853       -4.02978        1.88423
H         -1.68050       -3.87013        0.14631
H         -4.46334       -5.42778       -2.77003
H         -6.17592       -5.63221       -1.02242
H         -3.10095       -4.08507       -3.80961
H         -1.36332       -9.01486        2.62578
H         -1.57630       -6.52722        2.99738
H         -3.51390      -11.53082        0.34732
H         -1.31326      -12.41231        1.03799
H         -2.78382      -12.91482        5.06119
H         -4.91366      -11.89219        4.40067
H         -1.51446      -14.66364        4.56862
H         -7.14125       -9.45862       -0.09387
H         -9.28423       -8.60274       -0.91122
H        -11.15544      -12.34828        0.07736
H         -9.08555      -13.15111        1.02991
H        -13.44738      -10.31265       -1.29145
H         -6.34704      -13.69499        0.20312
H         -4.42650      -18.04264        2.83942
H         -3.44013      -15.63755        7.79606
H         -3.46306      -19.51133        4.67432
H         -4.71188      -14.31215        6.16814
