90

C          2.76427        3.41231        6.88435
C          1.52802        3.92013        7.26540
F          1.12363        3.77894        8.53420
C          0.69693        4.54896        6.34892
C          1.11038        4.68625        5.02295
C          2.34644        4.16844        4.60439
C          3.18304        3.50905        5.55139
C          4.38205        2.89847        5.13989
C          4.70635        2.86978        3.79055
C          3.90380        3.58763        2.88960
C          2.74566        4.24921        3.26494
C          4.38810        3.42078        1.50953
O          3.95016        3.96921        0.52003
C          5.52967        2.45281        1.59106
C          5.62340        2.00165        2.99079
C          5.97984        0.77305        3.43981
C          5.89017       -0.36689        2.58916
N          5.69815       -1.30224        1.93227
C          6.30770        0.50917        4.79963
N          6.61553        0.32692        5.90393
C          6.30965        2.28197        0.50812
C          7.54600        1.50458        0.38665
C          7.90960        0.90010       -0.80109
N          9.02446        0.15571       -0.96529
C          9.82476        0.00809        0.10995
N          9.58714        0.60126        1.29584
C          8.47670        1.35153        1.39243
C         11.04437       -0.83613       -0.03497
C         11.32582       -1.41835       -1.22010
C         12.48443       -2.25080       -1.40027
C         13.42168       -2.54449       -0.30967
C         13.31167       -2.06176        0.92533
S         12.03481       -0.99680        1.41690
C         14.40739       -3.39752       -0.84361
C         14.13555       -3.63982       -2.16765
C         15.08766       -4.45811       -2.79337
C         16.06279       -4.82537       -1.87623
S         15.79089       -4.15426       -0.29672
C         12.92789       -2.92522       -2.49970
C         12.30963       -2.91910       -3.79810
C         11.85247       -4.02362       -4.41079
C         11.22927       -3.99339       -5.73473
C         11.29519       -5.05754       -6.61689
N         10.73186       -5.06626       -7.84792
C         10.05787       -3.95337       -8.18432
N          9.92271       -2.86123       -7.41851
C         10.49335       -2.92026       -6.19991
C          9.51774       -3.85777       -9.53072
C          9.09369       -4.82617      -10.35215
C          8.98045       -4.43922      -11.79379
O          8.92483       -3.32523      -12.27175
C          9.02855       -5.69852      -12.54534
C          9.09086       -5.80378      -13.92561
C          9.16294       -7.08110      -14.48445
C          9.19246       -8.22293      -13.63155
C          9.25284       -9.49710      -14.21267
C          9.28103       -9.63548      -15.59697
C          9.26052       -8.52698      -16.43203
C          9.20501       -7.24947      -15.87703
F          9.32569      -10.86165      -16.13375
C          9.15204       -8.06717      -12.22748
C          9.04808       -6.79766      -11.67360
C          8.91464       -6.28518      -10.27334
C          8.45891       -6.99871       -9.21398
C          8.03371       -6.38736       -7.99826
N          7.63928       -5.92033       -7.01022
C          8.24821       -8.41137       -9.26101
N          8.07951       -9.55348       -9.29620
H          3.36989        2.90963        7.63410
H         -0.27199        4.91849        6.66997
H          0.44303        5.17117        4.31299
H          4.98281        2.39095        5.88735
H          2.13490        4.74239        2.51323
H          6.02251        2.78796       -0.41782
H          7.29933        0.98892       -1.69732
H          8.36611        1.83270        2.35798
H         10.66768       -1.28554       -2.07540
H         14.03987       -2.32014        1.68603
H         15.08700       -4.76552       -3.83093
H         16.92953       -5.44980       -2.04360
H         12.23186       -1.93526       -4.25595
H         11.92333       -4.99446       -3.92317
H         11.82784       -5.97097       -6.36624
H         10.33317       -2.03539       -5.58917
H          9.55981       -2.83261       -9.89958
H          9.08313       -4.90635      -14.53869
H          9.26776      -10.39645      -13.60276
H          9.28427       -8.66343      -17.50859
H          9.18828       -6.38704      -16.54095
H          9.20298       -8.95882      -11.61041
