131

C         18.47762       12.25230       -8.61682
C         17.21297       11.74797       -8.46325
C         17.14350       10.53647       -7.66651
C         16.07387        9.62619       -7.39466
C         14.74732        9.77985       -8.09667
C         13.44924        9.50714       -7.66851
C         12.43140        9.86742       -8.60897
C         12.95055       10.46678       -9.73169
S         14.65265       10.31618       -9.74649
C         12.24036       11.12670      -10.87108
Cl        10.76571        9.61453       -8.29857
C         16.26866        8.59971       -6.42994
C         17.44707        8.52313       -5.66489
C         18.54802        9.34849       -6.02628
C         18.39027       10.31151       -7.05117
S         19.60612       11.32873       -7.77306
C         19.86500        9.21675       -5.31621
C         20.82372       10.17778       -5.00771
C         21.95406        9.67144       -4.30161
C         21.82674        8.33445       -4.01235
S         20.46792        7.67335       -4.80686
C         22.71524        7.47466       -3.17586
Cl        23.27026       10.66819       -3.84906
C         17.25957        7.60499       -4.55918
C         16.11930        6.84173       -4.63208
S         15.23448        7.25921       -6.02193
C         15.66131        5.84120       -3.69421
C         14.91865        4.68810       -3.96068
C         14.52162        4.04050       -2.76400
C         15.00982        4.70086       -1.65769
S         15.94690        6.02927       -1.98517
C         14.42907        4.12256       -0.50952
C         13.57600        3.12239       -0.89193
C         13.65485        2.95171       -2.33740
C         13.06470        2.00495       -3.10250
C         13.24371        1.98151       -4.50468
N         13.38799        1.96773       -5.65634
C         12.24839        0.98530       -2.53492
N         11.57981        0.15247       -2.08353
C         12.76690        2.68444        0.18078
C         12.97888        3.46062        1.33281
S         14.41810        4.43799        1.11439
C         12.09543        3.61250        2.53073
C         12.00586        4.78285        3.33030
C         10.90214        5.03336        4.21237
N         10.86865        6.20088        4.88805
C         11.88313        7.08686        4.81012
C         12.94864        6.84165        3.98089
N         12.98379        5.71154        3.24308
C         14.11684        7.76951        3.86414
C         11.77799        8.31028        5.66374
C          9.83346        4.11742        4.39159
C          9.98292        2.85723        3.74881
C         11.13000        2.59961        2.80745
N         11.08769        1.35850        2.28839
S          9.76593        0.59123        2.90638
N          9.16692        1.79287        3.86249
C          8.57132        4.40115        5.13306
C          7.27458        3.89900        4.91993
C          6.31759        4.53588        5.74252
C          6.90860        5.48841        6.53275
S          8.55555        5.53590        6.46088
C          5.91485        6.18822        7.23665
C          4.68507        5.65860        6.92640
C          4.87240        4.54736        5.98600
C          3.93956        3.71109        5.49257
C          4.27535        2.65711        4.59921
N          4.54115        1.79979        3.86365
C          2.57053        3.82985        5.85735
N          1.45561        3.93497        6.16141
C          3.64772        6.35508        7.59033
C          4.15807        7.40058        8.36792
S          5.89220        7.49591        8.24860
C          3.42227        8.35146        9.17110
C          2.14262        8.81151        8.96957
C          1.66878        9.75167        9.97406
C          0.39363       10.34991       10.19436
C         -0.79206        9.89508        9.40030
C         -1.90186       10.59689        8.94139
C         -2.80968        9.80866        8.17190
C         -2.34675        8.52906        7.97828
S         -0.99657        8.22739        8.97546
C         -2.88298        7.45673        7.08914
Cl        -4.26205       10.45079        7.53403
C          0.25807       11.38068       11.15955
C          1.36967       11.87067       11.87003
C          2.60986       11.18433       11.74095
C          2.72744       10.11612       10.82051
S          4.06425        9.04341       10.57981
C          3.79177       11.60635       12.56018
C          5.15105       11.60720       12.26166
C          5.97065       12.15659       13.29287
C          5.22306       12.64957       14.33543
S          3.60440       12.12841       14.20170
C          5.65398       13.49085       15.48969
Cl         7.67442       12.24050       13.15955
C          1.00239       13.06308       12.60752
C         -0.34052       13.32713       12.61543
S         -1.18802       12.18978       11.70056
H         18.78499       13.10765       -9.20315
H         16.37366       12.22526       -8.94956
H         13.20459        9.08701       -6.70214
H         12.05668       10.41688      -11.68309
H         12.81887       11.96772      -11.27086
H         11.27405       11.53703      -10.55438
H         20.73819       11.22425       -5.26760
H         23.72099        7.42671       -3.60445
H         22.33722        6.45166       -3.08003
H         22.79549        7.88785       -2.16308
H         17.96308        7.49000       -3.74451
H         14.63452        4.39967       -4.96579
H         11.95576        1.97431        0.08544
H         14.65823        7.81940        4.81431
H         13.78456        8.77359        3.58408
H         14.81658        7.42248        3.09685
H         10.89558        8.25685        6.30996
H         11.68742        9.20374        5.03927
H         12.65597        8.40460        6.31032
H          7.04952        3.15407        4.16633
H          2.58874        6.13419        7.52847
H          1.55351        8.47632        8.12595
H         -2.07273       11.64883        9.12735
H         -3.96919        7.37041        7.18616
H         -2.44800        6.47641        7.30954
H         -2.65233        7.69149        6.04277
H          5.56781       11.25127       11.32876
H          6.57851       13.11138       15.93407
H          4.89586       13.53748       16.27816
H          5.83701       14.51761       15.14915
H          1.69007       13.69469       13.15377
H         -0.84900       14.12817       13.13531
