126

C          1.15660        5.15522       -8.29243
C          0.09537        5.66790       -7.62629
C         -1.20191        5.73097       -8.22165
N         -2.23693        5.81284       -8.74602
C          0.17890        6.02110       -6.24760
N          0.21688        6.26372       -5.11426
C          0.95473        4.18172       -9.37672
C          1.64570        3.01528       -9.02271
C          1.44409        1.83242       -9.71175
C          0.65189        1.88116      -10.88262
C          0.18243        3.13690      -11.37022
C          0.30043        4.28245      -10.58454
C         -0.42233        3.22456      -12.62864
C         -0.68560        2.07285      -13.36202
C         -0.36109        0.82667      -12.83237
C          0.32039        0.73008      -11.61353
C          2.63886        3.37052       -7.95605
O          3.42862        2.63853       -7.40006
C          2.49582        4.88481       -7.79951
C          3.57264        5.69142       -7.67547
C          3.71638        7.14113       -7.91021
C          3.50807        7.90738       -9.02194
N          3.28162        7.47021      -10.37683
O          2.45816        6.57777      -10.58464
O          3.88105        8.09914      -11.26227
C          3.63684        9.32676       -8.76970
C          3.96055        9.50718       -7.48812
C          4.13820        8.17741       -6.88711
C          4.84663        8.06840       -5.74044
C          5.86338        7.04946       -5.49528
C          6.53502        7.40895       -4.38647
C          5.94473        8.61730       -3.84666
N          6.33055        9.18010       -2.56527
O          6.81365        8.39497       -1.73774
O          6.20398       10.39736       -2.37865
C          4.93387        9.06598       -4.62195
C          4.03185       10.15322       -4.29643
C          2.75423       10.21289       -4.69035
C          1.82561       11.21454       -4.26930
C          1.71791       11.67637       -3.00661
C          0.56311       12.55034       -2.95355
C          0.01852       12.61560       -4.31663
C          0.73694       11.75843       -5.06310
O         -1.16731       13.22731       -4.61096
C         -1.57026       13.09611       -5.97721
C          0.06477       13.07833       -1.82803
C         -0.45385       14.42288       -1.73161
C         -1.05196       14.61609       -0.53593
C         -0.86739       13.34252        0.19359
C         -0.14727       12.46323       -0.52974
O          0.11291       11.13894       -0.30443
C         -0.87173       10.44995        0.47304
C         -1.73138       15.84246       -0.09131
C         -2.35742       16.80511       -0.84961
N         -2.47538       16.98624       -2.29475
O         -1.97469       16.19306       -3.08634
O         -3.11499       17.98351       -2.67030
C         -3.05609       17.77107       -0.03440
C         -2.92683       17.43899        1.24244
C         -2.15766       16.21246        1.34118
C         -1.86681       15.70377        2.56886
C         -0.67148       14.94100        2.91998
C         -0.77954       14.56141        4.20431
C         -2.03725       15.05147        4.73388
N         -2.50370       14.70932        6.06333
O         -2.04431       13.66974        6.55679
O         -3.30212       15.46242        6.63109
C         -2.71525       15.79674        3.82837
C         -4.07121       16.30926        4.00209
C         -4.38318       17.61548        4.00470
C         -5.72092       18.18606        4.07463
C         -6.02695       19.49593        3.98040
C         -7.32425       20.23605        4.10027
C         -8.57433       19.71049        4.13575
C         -9.76054       20.51924        4.23767
N        -10.70567       21.15171        4.32061
C         -8.83922       18.31125        4.05226
N         -9.06153       17.17024        3.98078
C         -6.97739       21.70886        4.10818
C         -5.59640       21.82967        3.92241
C         -4.96079       20.53393        3.77063
O         -3.78873       20.40545        3.47602
C         -4.89620       23.02334        3.85477
C         -5.61225       24.20355        3.96302
C         -7.02128       24.15162        4.15113
C         -7.69155       22.89670        4.23059
C         -7.70938       25.37217        4.24095
C         -7.02956       26.59253        4.14324
C         -5.64985       26.62063        3.96066
C         -4.94078       25.42930        3.87402
H          1.90621        0.90658       -9.38102
H         -0.09544        5.23744      -10.91766
H         -0.69740        4.19214      -13.04535
H         -1.16634        2.15017      -14.33392
H         -0.62827       -0.07410      -13.37885
H          0.57450       -0.25667      -11.23344
H          4.50830        5.19815       -7.40799
H          3.54345       10.10052       -9.51855
H          4.22829       10.46168       -7.06030
H          6.17501        6.27260       -6.17494
H          7.42098        6.94447       -3.97945
H          4.39378       10.94204       -3.64054
H          2.31811        9.46404       -5.34252
H          2.39260       11.50633       -2.18243
H          0.52948       11.43479       -6.07031
H         -2.54988       13.56366       -6.10982
H         -1.66983       12.04464       -6.27738
H         -0.85476       13.60776       -6.63083
H         -0.24559       15.12606       -2.51723
H         -1.28653       13.13720        1.16233
H         -1.75392       10.24433       -0.14385
H         -1.16837       10.99236        1.37650
H         -0.45826        9.49041        0.80075
H         -3.52717       18.67541       -0.38865
H         -3.18664       18.13563        2.00781
H          0.20605       14.80864        2.30717
H         -0.04364       14.03484        4.79278
H         -4.85492       15.56878        4.16293
H         -3.55332       18.30940        3.92731
H         -6.49029       17.43712        4.22358
H         -3.81998       23.01455        3.70492
H         -8.76701       22.91357        4.37662
H         -8.78791       25.38636        4.38127
H         -7.58198       27.52634        4.20739
H         -5.12400       27.56964        3.88249
H         -3.86274       25.46345        3.72865
