115

C          5.89812        2.23962       -1.70155
C          6.44037        2.18766       -2.94117
C          7.27135        1.11305       -3.37025
N          7.94388        0.23907       -3.72201
C          6.26044        3.22204       -3.90643
N          6.08385        4.05151       -4.69853
C          6.08851        1.21914       -0.62508
C          5.79281        1.81931        0.60165
C          5.87847        1.19403        1.82954
C          6.11448       -0.17168        1.83030
C          6.28692       -0.86209        0.59599
C          6.32788       -0.14731       -0.62698
C          6.34374       -2.26183        0.62894
C          6.23607       -2.95390        1.83989
C          6.12502       -2.26066        3.04263
C          6.07914       -0.87117        3.03977
C          5.12345        3.09437        0.39548
O          4.54625        3.70410        1.27269
C          5.14211        3.35186       -1.08513
C          4.45727        4.37032       -1.63163
C          3.64409        5.34180       -0.92262
C          4.01788        6.20729        0.05883
N          5.35754        6.34445        0.59047
O          6.31673        6.07006       -0.14711
O          5.46360        6.78672        1.74406
C          2.91847        7.01971        0.51450
C          1.84571        6.72902       -0.23220
C          2.22547        5.71728       -1.21846
C          1.40964        5.26344       -2.19682
C          1.57666        4.02867       -2.96551
C          0.54563        3.93055       -3.82135
C         -0.29140        5.10018       -3.66508
N         -1.39632        5.41196       -4.54372
O         -2.37060        6.01588       -4.07563
O         -1.30802        5.01007       -5.71223
C          0.17668        5.93449       -2.71204
C         -0.30652        7.27745       -2.45878
C          0.47541        8.36525       -2.55074
C         -0.06692        9.65080       -2.32885
S         -0.70498       10.53552       -3.67082
C         -1.12210       11.91492       -2.70900
C         -0.79299       11.66286       -1.40411
C         -0.18906       10.40714       -1.19439
C          0.11875       10.29513        0.20836
O          0.64691        9.36870        0.79475
N         -0.31749       11.47146        0.76557
C         -0.88982       12.33636       -0.13194
O         -1.37461       13.42552        0.11911
C         -1.70354       13.03343       -3.34871
C         -1.52332       14.27029       -2.86964
C         -2.10907       15.42340       -3.47646
C         -1.87442       15.80552       -4.74600
C         -2.63366       17.02653       -4.99933
C         -3.35970       17.31102       -3.75090
C         -3.02477       16.36249       -2.86178
C         -4.26822       18.35324       -3.46199
N         -5.01720       19.20415       -3.21558
C         -2.61157       17.72230       -6.15256
C         -3.34117       18.96096       -6.39752
C         -3.00897       19.41753       -7.61885
C         -2.10677       18.45705       -8.23644
C         -1.85816       17.44983       -7.38402
C         -1.01179       16.36068       -7.69757
N         -0.31391       15.47198       -7.95840
C         -3.54145       20.63657       -8.16095
C         -2.89122       21.36554       -9.07687
C         -3.41309       22.61660       -9.56914
C         -3.15316       23.16357      -10.76471
C         -3.56459       24.47796      -11.29925
C         -4.67513       25.18260      -10.96975
C         -5.02651       26.40524      -11.60421
N         -5.31234       27.40928      -12.11452
C         -5.62163       24.73513       -9.99682
N         -6.38904       24.37403       -9.20861
C         -2.61012       24.79019      -12.40800
C         -1.86709       23.63580      -12.69156
C         -2.22164       22.55024      -11.77186
O         -1.81506       21.40930      -11.84535
C         -0.88708       23.56805      -13.66858
C         -0.61884       24.72029      -14.41050
C         -1.34369       25.91559      -14.14354
C         -2.32969       25.94138      -13.13198
C         -1.05848       27.06120      -14.90131
C         -0.08337       27.03419      -15.90060
C          0.62777       25.86458      -16.15250
C          0.36396       24.71399      -15.41021
H          5.64913        1.74413        2.73807
H          6.45758       -0.69997       -1.55302
H          6.42492       -2.83316       -0.29325
H          6.22892       -4.04077        1.84400
H          6.04701       -2.79998        3.98300
H          5.96942       -0.34175        3.98465
H          4.40891        4.50653       -2.70758
H          2.95036        7.69387        1.35713
H          0.85465        7.11329       -0.05706
H          2.32779        3.27030       -2.82373
H          0.34387        3.12319       -4.50994
H         -1.36539        7.37750       -2.22316
H          1.52988        8.29643       -2.80714
H         -0.24496       11.67582        1.74713
H         -2.29018       12.87206       -4.25173
H         -0.92608       14.47574       -1.98688
H         -1.21959       15.27845       -5.41928
H         -3.38339       16.26655       -1.84650
H         -4.00667       19.47468       -5.72448
H         -1.71062       18.55958       -9.23692
H         -4.51103       20.95858       -7.78296
H         -1.92298       21.03634       -9.44833
H         -4.02431       23.13795       -8.83781
H         -0.34159       22.64191      -13.82858
H         -2.83789       26.87975      -12.93507
H         -1.59915       27.98945      -14.72561
H          0.12003       27.92890      -16.48393
H          1.38813       25.84617      -16.92936
H          0.93296       23.81064      -15.62158
