126

C         -3.75881        1.90008       -4.63495
C         -4.66033        2.72654       -5.30370
F         -4.20314        3.81231       -5.94233
C         -6.01406        2.42472       -5.32847
F         -6.86943        3.20359       -6.00405
C         -6.49630        1.30542       -4.66294
C         -5.60984        0.46210       -3.97967
C         -4.20899        0.74305       -3.98014
C         -3.30092       -0.15819       -3.37543
C         -3.77844       -1.32482       -2.78867
C         -5.16551       -1.53905       -2.77231
C         -6.08948       -0.67966       -3.34085
C         -5.47666       -2.88990       -2.29141
O         -6.57867       -3.33943       -2.05612
C         -4.15556       -3.60830       -2.27171
C         -3.11267       -2.55870       -2.26552
C         -1.84819       -2.66443       -1.78062
C         -1.37230       -3.88272       -1.22134
N         -1.00184       -4.88849       -0.77224
C         -0.95277       -1.56010       -1.73302
N         -0.22673       -0.65875       -1.69517
C         -4.06599       -4.91352       -2.54589
C         -5.18069       -5.81390       -2.82143
C         -6.04797       -5.75519       -3.87165
N         -6.01176       -4.83624       -4.99505
O         -6.55999       -5.22170       -6.03810
O         -5.44169       -3.74570       -4.88747
C         -7.00657       -6.82658       -3.84259
C         -6.71863       -7.62367       -2.81240
C         -5.55206       -7.09432       -2.10518
C         -4.96745       -7.68020       -1.03000
C         -3.92297       -7.06711       -0.20246
C         -3.61310       -7.91610        0.78836
C         -4.39664       -9.11667        0.62373
N         -4.24348      -10.26163        1.49259
O         -4.43267      -11.39003        1.03194
O         -3.86923      -10.03337        2.65193
C         -5.22293       -9.04376       -0.44560
C         -6.06706      -10.12179       -0.92713
C         -7.40956      -10.09890       -0.92009
C         -8.20177      -11.15457       -1.46281
S         -9.71698      -10.77668       -2.17225
C        -10.13699      -12.40731       -2.53449
C         -9.08473      -13.23391       -2.16644
C         -8.00748      -12.51577       -1.52869
N         -6.90645      -13.10679       -1.00723
C         -6.90961      -14.45021       -1.17037
O         -5.83291      -15.15650       -0.66066
C         -4.66754      -14.34315       -0.48641
C         -4.06442      -13.97196       -1.83408
C         -7.92723      -15.16579       -1.82694
C         -7.82153      -16.66488       -2.00898
N         -7.86002      -17.05117       -3.42643
N         -9.05987      -14.58613       -2.35378
C        -11.41347      -12.75605       -3.15284
S        -12.14820      -14.28232       -2.82882
C        -13.37732      -14.08464       -4.02298
C        -13.12072      -12.91021       -4.73254
C        -12.27939      -12.01208       -3.95301
C        -12.30996      -10.50955       -4.20250
N        -12.69651       -9.71201       -2.95632
O        -12.19944       -8.58156       -2.84926
O        -13.53377      -10.20300       -2.18613
C        -13.37597      -10.08902       -5.23242
C        -13.37830      -11.00542       -6.43786
C        -13.71241      -12.45751       -6.05586
N        -13.15084      -13.29399       -7.20971
O        -13.96215      -13.86698       -7.94728
O        -11.92253      -13.31580       -7.36267
C        -14.38216      -15.11044       -4.10327
C        -15.06762      -15.37984       -5.22238
C        -16.11948      -16.35637       -5.39696
C        -16.73628      -16.63752       -6.55922
C        -17.60549      -17.85171       -6.63868
O        -18.14307      -18.44748       -5.72814
C        -17.64151      -18.21258       -8.06728
C        -18.31212      -19.28705       -8.61594
C        -18.21135      -19.48370       -9.99487
C        -17.37454      -18.63314      -10.78261
C        -17.26776      -18.87093      -12.16080
C        -17.99657      -19.90035      -12.74922
C        -18.83040      -20.70374      -11.98393
C        -18.93661      -20.50863      -10.61217
F        -19.54814      -21.67629      -12.56152
F        -17.89640      -20.10143      -14.07002
C        -16.70249      -17.55021      -10.18351
C        -16.89480      -17.30295       -8.83179
C        -16.58137      -16.15468       -7.94237
C        -16.64072      -14.87236       -8.37856
C        -16.97451      -13.81348       -7.48722
N        -17.26490      -12.94809       -6.76789
C        -16.48474      -14.49712       -9.74558
N        -16.32117      -14.18741      -10.85647
H         -2.70482        2.16480       -4.65451
H         -7.56089        1.08983       -4.70921
H         -2.23622        0.04602       -3.44800
H         -7.14156       -0.95084       -3.35675
H         -3.09388       -5.40575       -2.66072
H         -7.84568       -6.93467       -4.51287
H         -7.34700       -8.44770       -2.56666
H         -3.49064       -6.08902       -0.30382
H         -2.89648       -7.75679        1.58199
H         -5.52571      -10.99338       -1.29781
H         -7.92684       -9.20827       -0.56565
H         -3.93828      -14.92286        0.09124
H         -4.89252      -13.46905        0.12443
H         -3.61390      -14.85564       -2.29532
H         -3.30170      -13.19731       -1.72353
H         -4.81908      -13.60987       -2.54019
H         -8.66994      -17.12045       -1.48663
H         -6.91150      -17.07863       -1.56505
H         -8.58622      -16.48892       -3.87649
H         -8.17736      -18.01638       -3.48857
H        -11.32277      -10.16296       -4.52791
H        -13.18075       -9.05913       -5.55739
H        -14.38176      -10.08895       -4.79074
H        -12.39592      -10.92494       -6.92083
H        -14.10762      -10.64797       -7.17574
H        -14.79764      -12.57933       -6.02971
H        -14.59888      -15.67781       -3.19613
H        -14.81709      -14.86110       -6.12127
H        -16.36962      -16.95055       -4.51571
H        -18.91511      -19.92939       -7.97914
H        -16.63798      -18.25290      -12.79630
H        -19.60037      -21.15310      -10.04244
H        -16.07542      -16.90677      -10.79599
