133

C        -15.60121        6.93883       -2.58059
N        -15.54159        8.28564       -2.24255
C        -16.65607        9.18890       -2.05500
C        -18.03551        8.60553       -2.31026
C        -14.21130        8.70336       -2.00512
O        -13.78040        9.79035       -1.68904
C        -13.44682        7.45708       -2.20903
C        -14.37371        6.42691       -2.57191
C        -13.62382        5.18415       -2.76682
O        -14.07972        4.10866       -3.08885
N        -12.28780        5.56979       -2.47539
C        -11.22484        4.58665       -2.51164
C        -10.17800        4.81969       -3.58972
C        -12.22114        6.93201       -2.13412
C        -11.05512        7.70275       -1.79115
C         -9.98254        7.27292       -1.11267
C         -8.83380        8.07463       -0.83885
S         -8.46177        9.49310       -1.73032
C         -6.98362        9.74514       -0.91054
C         -6.67613        8.65069       -0.11785
C         -7.84981        7.84006        0.11423
C         -7.89597        6.80013        1.21597
N         -9.07929        7.01802        2.15517
O         -9.70935        6.00622        2.49130
O         -9.30093        8.16878        2.55514
C         -6.63515        6.82150        2.10201
C         -5.36743        6.97020        1.25815
C         -5.34411        8.33412        0.53384
N         -4.21360        8.26691       -0.48894
O         -4.33233        7.46260       -1.42731
O         -3.23019        8.98644       -0.28295
C         -6.26263       10.93832       -1.18107
C         -5.72107       11.64790       -0.17722
C         -4.93211       12.82267       -0.36961
S         -4.24727       13.21204       -1.89675
C         -3.27964       14.45519       -1.25393
C         -3.53631       14.65770        0.08558
C         -4.53524       13.75089        0.58899
C         -4.95711       13.76535        2.03672
C         -4.36595       14.93653        2.83694
C         -2.90917       15.24220        2.45711
O         -2.12235       14.08805        2.78605
C         -0.72984       14.24070        2.54867
C         -2.84011       15.65188        0.97253
C         -2.27166       15.02333       -2.06337
C         -2.53553       15.91371       -3.03461
C         -1.45639       16.38882       -3.83214
S         -0.31732       15.28224       -4.46099
C          0.83133       16.50188       -4.84805
C          0.25905       17.75295       -4.62077
C         -1.16336       17.64767       -4.32593
C         -2.09149       18.83692       -4.37652
N         -3.30150       18.54701       -5.26103
O         -3.09993       18.28231       -6.45375
O         -4.41427       18.61713       -4.71713
C         -1.40021       20.08508       -4.95989
C         -0.01059       20.27503       -4.34901
C          0.93967       19.10904       -4.71083
N          2.11614       19.22677       -3.74400
O          1.95129       18.84242       -2.57705
O          3.14681       19.75252       -4.18456
C          2.14645       16.14322       -5.29715
C          2.53981       14.86249       -5.41400
C          3.85903       14.42194       -5.74565
N          4.60468       13.60932       -4.88981
C          4.15147       13.07995       -3.61513
C          4.33038       14.05731       -2.46580
C          5.87712       13.32419       -5.42625
O          6.79400       12.68180       -4.95726
C          5.82891       13.98964       -6.74248
C          4.55164       14.63616       -6.86481
C          4.49354       15.28649       -8.18123
O          3.57622       15.94637       -8.62611
N          5.75414       14.97195       -8.74217
C          6.14916       15.50282      -10.03257
C          6.37863       14.45808      -11.11407
C          6.53296       14.22615       -7.85081
C          7.88506       13.80986       -8.07668
C          8.24904       12.79237       -8.86536
H        -16.52641        6.42051       -2.79025
H        -16.49098       10.05467       -2.70710
H        -16.60113        9.56110       -1.02456
H        -18.13280        8.25953       -3.34434
H        -18.80551        9.36208       -2.13177
H        -18.23625        7.75907       -1.64488
H        -11.66763        3.59889       -2.68923
H        -10.76876        4.52134       -1.52055
H        -10.63073        4.81619       -4.58449
H         -9.42727        4.02318       -3.55436
H         -9.65309        5.77087       -3.46534
H        -11.12320        8.75144       -2.08611
H         -9.95825        6.25568       -0.74472
H         -8.02598        5.80598        0.77098
H         -6.58617        5.89731        2.69051
H         -6.66990        7.64761        2.82529
H         -5.32782        6.13438        0.54601
H         -4.48049        6.87500        1.89617
H         -5.07993        9.12169        1.24864
H         -6.21365       11.27440       -2.21372
H         -5.85277       11.32374        0.85139
H         -4.65308       12.82080        2.50356
H         -6.05155       13.81804        2.09590
H         -4.43199       14.69311        3.90433
H         -4.97415       15.83534        2.67363
H         -2.55375       16.07619        3.07490
H         -0.20308       13.44275        3.07931
H         -0.36636       15.20432        2.91781
H         -0.51121       14.13386        1.48235
H         -1.79973       15.77528        0.65519
H         -3.33300       16.62387        0.84284
H         -1.26231       14.67014       -1.86342
H         -3.54117       16.29378       -3.18952
H         -2.47566       19.05237       -3.37202
H         -2.01938       20.96972       -4.77003
H         -1.28740       20.01466       -6.04966
H         -0.12656       20.37396       -3.26053
H          0.42089       21.22172       -4.69701
H          1.34434       19.24684       -5.72031
H          2.85417       16.93899       -5.51835
H          1.86967       14.03448       -5.19905
H          4.71582       12.16644       -3.39698
H          3.09977       12.78467       -3.70158
H          5.39141       14.24853       -2.27875
H          3.89181       13.64475       -1.55101
H          3.84578       15.01710       -2.66952
H          7.03980       16.12494       -9.89646
H          5.35103       16.16829      -10.38281
H          7.38450       14.03710      -11.04900
H          6.30321       14.91875      -12.10471
H          5.65455       13.63958      -11.05699
H          8.64451       14.32766       -7.49359
H          7.52714       12.21747       -9.43691
H          9.29430       12.51315       -8.95504
