135

C          8.01242        0.39629        5.69285
F          7.80274        1.11575        6.80359
C          8.46791        0.99727        4.52125
C          8.71670        2.45185        4.48716
O          9.04472        3.08856        5.47208
O          8.50689        3.03318        3.28707
C          8.69708        0.19160        3.41019
F          9.14395        0.73541        2.26787
C          8.44166       -1.18239        3.45321
F          8.72470       -1.92414        2.37256
C          7.90982       -1.78321        4.59725
C          7.72989       -0.97309        5.72422
F          7.28037       -1.51460        6.86616
C          7.62055       -3.21786        4.65476
C          8.57834       -4.07483        5.08556
C          8.05442       -5.42047        5.12211
C          8.74434       -6.55513        5.61290
N          9.28667       -7.49243        6.02416
C          6.78446       -5.41631        4.69597
C          6.40740       -4.03783        4.35837
C          5.18858       -3.67461        3.89213
C          4.02352       -4.55073        3.55963
C          3.06619       -3.73248        3.07046
C          3.50404       -2.35898        3.12283
C          4.74730       -2.30221        3.62371
C          2.70251       -1.27481        2.70321
N          2.04176       -0.38952        2.33951
C          3.83360       -5.98485        3.57279
C          2.65733       -6.58588        3.81332
C          2.50903       -8.02500        3.92084
C          1.95232       -8.49810        5.06229
C          1.74927       -9.92003        5.22019
C          1.17802      -10.61364        6.23506
C          0.62336      -10.05405        7.52572
C         -0.91033       -9.89140        7.41899
N         -1.45066       -9.01911        8.46762
C          1.10022      -10.83591        8.77848
N          0.61558      -10.29575       10.05504
C          1.19676      -12.00480        5.78587
C          0.67934      -13.12195        6.31777
C          0.81859      -14.48271        5.65655
C          1.57192      -14.45696        4.33331
C          2.06117      -13.33230        3.78084
C          1.86551      -12.09345        4.48530
C          2.17059      -10.83433        4.14051
C          2.76978      -10.29569        2.94408
C          2.91394       -8.95880        2.84900
C          1.47681      -15.44876        6.60871
C          0.79196      -16.29630        7.39457
C          1.42098      -17.23722        8.28473
C          2.29612      -16.84665        9.24159
C          2.69106      -17.98056       10.04633
C          3.63719      -17.93118       11.09796
N          4.40816      -17.89270       11.95949
C          2.04911      -19.07657        9.61805
C          1.19457      -18.69113        8.49286
C          0.43247      -19.54407        7.77402
C          0.16458      -20.96989        8.05887
C         -0.52661      -21.45432        7.00780
C         -0.75990      -20.40403        6.04369
C         -0.22612      -19.25532        6.49604
C         -1.42986      -20.61654        4.81452
N         -1.97355      -20.82460        3.81463
C          0.43327      -21.82419        9.18321
C          0.03317      -21.57373       10.44036
C          0.24691      -22.51705       11.54700
C         -0.60849      -22.47042       12.66415
C         -0.48334      -23.39241       13.71373
C          0.48992      -24.38138       13.63672
C          1.32705      -24.42879       12.50912
C          1.25708      -23.48442       11.50163
S          2.40241      -25.84776       12.51842
C          1.65846      -26.33738       14.06073
C          1.96988      -27.51681       14.63047
C          2.91379      -28.48824       14.13611
C          2.74632      -29.77752       13.80404
C          1.64218      -30.76486       13.72962
C          0.43616      -30.76350       14.35482
C         -0.57108      -31.74766       14.10763
N         -1.40734      -32.52350       13.90847
C          0.05558      -29.84906       15.37211
N         -0.31334      -29.18612       16.25991
C          2.17121      -31.92219       12.91672
C          3.52830      -31.70099       12.64271
C          3.95408      -30.39917       13.15264
O          5.07093      -29.93500       13.03674
C          4.35636      -32.61684       12.00393
C          3.80361      -33.83263       11.62211
C          2.44743      -34.08369       11.85802
C          1.62922      -33.13183       12.49191
N          0.70635      -25.43270       14.56378
C          0.68720      -25.01676       15.96456
H          8.27644        2.45489        2.53373
H          9.58427       -3.83030        5.39703
H          6.16517       -6.29275        4.68989
H          2.09932       -4.03371        2.68779
H          5.29049       -1.39586        3.81129
H          4.69921       -6.61165        3.39530
H          1.75175       -6.01079        3.99825
H          1.64822       -7.83352        5.86415
H          1.03766       -9.04253        7.64598
H         -1.39973      -10.86960        7.47722
H         -1.17912       -9.44569        6.45378
H         -1.08556       -9.36918        9.36352
H         -2.46013       -9.14158        8.52121
H          2.19661      -10.83897        8.80148
H          0.78083      -11.87761        8.74434
H          0.89672       -9.31683       10.12986
H          1.08691      -10.78291       10.81794
H          0.10354      -13.09877        7.23412
H         -0.19639      -14.83540        5.43099
H          1.69928      -15.40304        3.81390
H          2.58362      -13.34409        2.83172
H          3.06506      -10.95522        2.13759
H          3.33283       -8.52463        1.94559
H          2.56654      -15.44522        6.63114
H         -0.29597      -16.29041        7.39052
H          2.64557      -15.83909        9.41943
H          2.21010      -20.07080       10.00457
H         -0.90400      -22.46332        6.90290
H         -0.21874      -18.31983        5.96336
H          0.92862      -22.75780        8.92538
H         -0.51662      -20.66433       10.67321
H         -1.40952      -21.73437       12.71151
H         -1.18859      -23.35936       14.53777
H          1.96682      -23.53955       10.68374
H          1.51613      -27.74656       15.58451
H          3.89860      -28.04095       13.96779
H          5.40572      -32.39548       11.83052
H          4.42228      -34.59032       11.14678
H          2.02087      -35.04035       11.55899
H          0.59300      -33.41042       12.63734
H          0.86156      -25.86163       16.63789
H         -0.27676      -24.58336       16.24826
H          1.47547      -24.27673       16.15291
