87

C         12.03059       -1.60350        2.54560
C         12.20041       -2.77639        3.22919
S         13.85431       -3.27628        3.14116
C         14.28476       -1.93464        2.17534
Cl        15.91793       -1.73249        1.70199
C         13.20721       -1.15014        1.89236
C         12.97508        0.03388        1.10287
O         13.76073        0.68143        0.43937
C         11.45819        0.21272        1.23595
C         10.96852       -0.64101        2.35222
C          9.95403       -0.42722        3.22482
C          9.64499       -1.36131        4.23648
N          9.37496       -2.14331        5.04675
C          9.25093        0.79226        3.34113
N          8.63071        1.74409        3.59463
C         10.81287        0.78214        0.19798
C          9.36714        0.72341       -0.12414
C          8.43904        1.71281        0.20751
C          7.02334        1.62816       -0.13527
N          6.18848        2.60492        0.27403
C          6.71111        3.60498        1.03141
C          8.04806        3.66298        1.36067
N          8.92936        2.74210        0.91470
F          8.50431        4.61263        2.19007
F          5.87971        4.56719        1.45468
C          6.48184        0.54239       -0.86676
C          7.40748       -0.46512       -1.26304
C          8.87265       -0.37615       -0.87374
N          9.59132       -1.43137       -1.29281
S          8.56027       -2.41136       -2.14173
N          7.14002       -1.57235       -1.97595
C          5.05425        0.41211       -1.23540
N          4.05975       -0.19321       -0.43154
C          4.19991       -0.92121        0.80821
C          4.38697       -2.41828        0.59299
C          2.77969       -0.10095       -1.01558
O          1.70023       -0.49496       -0.62462
C          3.05514        0.59033       -2.26707
C          4.46264        0.87275       -2.35667
C          4.64927        1.55300       -3.66468
O          5.70404        1.96356       -4.11426
N          3.34143        1.57565       -4.22907
C          3.05694        2.17577       -5.52663
C          2.44874        1.24325       -6.57088
C          2.41472        1.01678       -3.35046
C          1.01934        0.80229       -3.60293
C          0.05979        1.73692       -3.70372
C         -1.33939        1.42242       -4.04774
C         -1.78084        0.17096       -4.44840
N         -3.03168       -0.11640       -4.87137
C         -3.88493        0.91703       -4.89965
N         -3.59001        2.17333       -4.53756
C         -2.32811        2.38950       -4.09292
C         -5.17563        0.69249       -5.53716
C         -5.85987       -0.45765       -5.64511
C         -6.87377       -0.49916       -6.77782
O         -7.40170        0.43071       -7.35534
C         -6.96774       -1.90843       -7.04565
C         -7.58672       -2.66307       -7.99459
S         -7.25599       -4.32420       -7.79105
C         -6.27323       -4.03454       -6.39300
C         -6.22642       -2.69348       -6.12194
C         -5.65130       -1.83729       -5.11409
C         -5.25420       -2.20264       -3.87290
C         -5.14931       -3.57252       -3.48444
N         -5.06531       -4.68688       -3.18070
C         -5.05294       -1.25051       -2.83354
N         -4.94560       -0.48671       -1.96500
Cl        -8.57996       -2.14605       -9.29036
H         11.49662       -3.37242        3.79508
H         11.40700        1.25279       -0.59046
H          3.26752       -0.79261        1.37567
H          5.00481       -0.49434        1.40975
H          3.52082       -2.86336        0.08821
H          4.50395       -2.92711        1.55538
H          5.26898       -2.62833       -0.01679
H          3.99447        2.57016       -5.93528
H          2.39545        3.03496       -5.36793
H          3.08983        0.37708       -6.75986
H          2.31727        1.77913       -7.51881
H          1.46233        0.87550       -6.27713
H          0.77618       -0.25663       -3.66804
H          0.30536        2.78839       -3.56574
H         -1.11846       -0.68804       -4.47512
H         -2.13886        3.41607       -3.78753
H         -5.51407        1.57389       -6.08093
H         -5.81598       -4.87507       -5.88773
