66

C          9.20556       -6.36609        2.54922
C          9.68651       -7.34826        3.37507
S          9.78009       -8.85520        2.52523
C          9.18618       -8.15588        1.09096
Cl         8.90411       -9.14543       -0.27219
C          8.95753       -6.82191        1.23605
C          8.48560       -5.78324        0.36606
O          8.39897       -5.81565       -0.84588
C          8.18635       -4.63643        1.34036
C          8.88555       -4.96397        2.65213
C          9.25728       -4.12695        3.64485
C          9.99335       -4.58830        4.78029
N         10.59585       -4.97015        5.69207
C          9.00266       -2.73283        3.61087
N          8.77024       -1.59624        3.56743
C          7.31854       -3.62954        1.08733
C          6.52247       -3.32370       -0.12862
C          6.02103       -4.29902       -0.99806
C          5.33647       -3.97465       -2.17855
C          5.04468       -2.62499       -2.35489
N          5.41280       -1.64217       -1.49393
C          6.15003       -2.01097       -0.41808
C          4.96349       -5.00733       -3.15195
S          3.50853       -4.91714       -4.10806
C          3.78955       -6.42333       -4.93082
C          4.95767       -6.90900       -4.45252
C          5.60993       -6.15115       -3.50032
N          6.81608       -6.63940       -3.05698
C          6.93547       -7.82047       -3.78832
C          8.05050       -8.70550       -3.69599
N          8.93909       -9.44893       -3.65821
C          5.83081       -8.00799       -4.64121
C          2.89834       -6.96337       -5.92559
S          2.72000       -8.65591       -6.13970
C          1.60960       -8.46763       -7.42234
C          1.04947       -9.66300       -8.01617
O          0.59369       -9.73052       -9.15566
C          1.38884       -7.13379       -7.71419
C          2.07759       -6.27657       -6.80124
C          0.43303       -6.68400       -8.67974
C          0.59315       -6.49065      -10.00014
C         -0.69400       -6.46260      -10.81629
O         -1.81727       -6.18551      -10.44271
C         -0.24040       -6.88830      -12.11245
C         -0.84860       -7.17080      -13.29722
S          0.27636       -7.67258      -14.47779
C          1.61304       -7.48868      -13.39026
C          1.17052       -7.04809      -12.17194
C          1.75468       -6.62421      -10.91927
C          3.01504       -6.16328      -10.75296
C          4.02023       -6.33218      -11.75005
N          4.83564       -6.47515      -12.55972
C          3.37360       -5.31004       -9.67199
N          3.67250       -4.54122       -8.85712
Cl        -2.51179       -7.07872      -13.69545
H          9.98875       -7.32639        4.41372
H          7.10710       -2.90298        1.86967
H          6.14915       -5.34688       -0.75763
H          4.48734       -2.26612       -3.21730
H          6.42886       -1.17907        0.22660
H          7.45762       -6.23202       -2.37939
H          5.70884       -8.84194       -5.32058
H          1.04250      -10.56275       -7.37265
H          2.00418       -5.19428       -6.81158
H         -0.58346       -6.61888       -8.28322
H          2.61185       -7.70673      -13.74482
