74

C          2.26555       -0.63894        7.54703
C          1.60006       -0.05619        8.59400
S          1.80332       -0.98807       10.04252
C          2.76701       -2.13943        9.24271
Cl         3.41498       -3.46487       10.11395
C          2.91522       -1.83391        7.92381
C          3.59300       -2.47104        6.83980
O          4.14309       -3.55046        6.87010
C          3.41931       -1.47863        5.67902
C          2.47514       -0.37662        6.13837
C          1.88221        0.60343        5.41370
C          0.99055        1.54886        6.00787
N          0.27191        2.31370        6.49168
C          2.06134        0.76472        4.01473
N          2.21141        0.89453        2.86929
C          4.06952       -1.59627        4.49981
C          5.00313       -2.63737        4.02601
C          5.08340       -2.96296        2.68177
N          5.90710       -3.90081        2.17277
C          6.70120       -4.53652        3.05078
N          6.76696       -4.26498        4.35739
C          5.93422       -3.30243        4.80098
C          7.57994       -5.58913        2.56847
C          7.65067       -5.94014        1.27666
C          8.50283       -6.99030        0.86148
O          8.82471       -8.06639        1.65895
C          9.65969       -8.92900        0.98303
C          9.84756       -8.39203       -0.28183
C          9.14044       -7.18451       -0.34785
O          9.07834       -6.35477       -1.40464
O         10.54833       -8.92868       -1.29914
C         10.12639      -10.11156        1.60926
C         11.32983      -10.64307        1.35491
C         11.77788      -11.84933        2.00891
C         11.90361      -11.93881        3.34129
C         12.28869      -13.15269        3.96939
S         13.16227      -13.10851        5.44513
C         13.11828      -14.80831        5.61751
C         13.65131      -15.38111        6.83292
O         14.09377      -16.52348        6.93143
C         12.52370      -15.42073        4.53046
C         12.02151      -14.46085        3.60524
C         12.21553      -16.81502        4.46993
C         12.95666      -17.84588        4.03341
C         12.46779      -19.21671        4.48784
O         11.35059      -19.53943        4.84261
C         13.66499      -20.00573        4.42093
C         13.98522      -21.28668        4.75132
S         15.63045      -21.61921        4.45030
C         15.91767      -20.02237        3.83850
C         14.76280      -19.28747        3.87633
C         14.31825      -17.98078        3.44521
C         14.90075      -17.22325        2.48818
C         16.19769      -17.52185        1.97526
N         17.25138      -17.76693        1.55711
C         14.19769      -16.20435        1.78698
N         13.63443      -15.43173        1.12867
Cl        12.97128      -22.51169        5.38775
H          1.00302        0.84268        8.65016
H          3.92627       -0.85040        3.72372
H          4.47874       -2.46606        1.92679
H          6.07576       -3.07752        5.85154
H          8.17376       -6.08158        3.33264
H          7.06589       -5.42511        0.52042
H          9.62051       -6.73899       -2.11922
H         10.77425       -9.85309       -1.09829
H          9.47485      -10.55195        2.36082
H         12.02624      -10.18936        0.65462
H         12.01101      -12.68933        1.35676
H         11.68834      -11.07540        3.96879
H         13.63454      -14.72178        7.72085
H         11.44830      -14.71337        2.71934
H         11.26268      -17.05617        4.94939
H         16.90945      -19.76734        3.48972
