105

C         -2.60429       -2.30529        1.89138
C         -2.27894       -1.34327        2.87888
C         -3.15217       -0.12011        3.00214
C         -1.10922       -1.49027        3.67266
C         -0.65850       -0.42382        4.63561
C         -0.30708       -2.62416        3.51499
C         -0.66505       -3.54336        2.54654
C         -1.78688       -3.41149        1.71902
C         -1.75565       -4.52475        0.72676
C         -2.81220       -5.05558        0.07443
C         -4.13744       -4.55200        0.23560
N         -5.21221       -4.14160        0.37553
C         -2.69387       -6.21459       -0.75012
N         -2.58389       -7.14884       -1.42877
C         -0.37872       -5.06566        0.77796
C          0.13313       -4.70300        2.14107
O          0.97823       -5.25049        2.81583
C          0.36981       -5.56520       -0.22124
C          1.76057       -5.87634       -0.11330
C          2.80110       -5.23527        0.57128
C          4.00324       -5.96731        0.49767
C          3.84338       -7.10782       -0.25129
S          2.35947       -7.27500       -0.97227
C          5.00831       -7.89007       -0.13559
C          5.91025       -7.23840        0.67450
C          5.35735       -5.93670        1.05084
C          5.97376       -4.91912        1.68677
C          7.33993       -5.00825        2.08059
N          8.45578       -5.08293        2.38111
C          5.31561       -3.68000        1.91793
N          4.77996       -2.66210        2.08588
C          7.03512       -8.04628        0.94995
C          6.92451       -9.29018        0.32151
S          5.46717       -9.40541       -0.62253
C          7.80640      -10.43091        0.42220
C          7.99123      -11.45002       -0.51663
C          8.83420      -12.46181       -0.01455
C          9.28211      -12.15353        1.24717
S          8.73550      -10.71343        1.86306
C         10.05429      -13.22740        1.72187
C         10.06894      -14.23581        0.78920
C          9.35614      -13.77470       -0.40316
C          9.25198      -14.38635       -1.59720
C          9.85598      -15.64684       -1.84395
N         10.35328      -16.67803       -2.04534
C          8.56584      -13.78062       -2.68563
N          8.01026      -13.27944       -3.57095
C         10.72047      -15.39082        1.28805
C         11.16359      -15.20326        2.60586
S         10.95446      -13.52144        3.06857
C         11.82849      -16.13405        3.47661
C         11.71683      -16.17040        4.81836
C         12.55863      -16.95952        5.69809
C         12.58417      -16.48719        6.95905
C         11.76475      -15.29657        7.13226
S         10.63098      -15.21103        5.79904
C         11.88621      -14.33542        8.06824
C         12.79722      -14.33423        9.19532
C         12.80345      -13.18791        9.89231
C         11.91725      -12.17653        9.36036
S         11.00694      -12.80021        8.00791
C         11.79408      -10.93307        9.85193
C         10.94907       -9.89102        9.29287
C          9.94985       -9.26271        9.93180
C          8.95555       -8.29395        9.41863
C          9.14835       -7.35950        8.45382
C          8.16738       -6.38460        8.11190
N          7.36858       -5.58773        7.83761
C         10.38802       -7.21992        7.76557
N         11.40189       -7.09783        7.21319
C          7.76474       -8.40079       10.31615
C          8.12390       -9.15705       11.43504
C          9.50728       -9.64213       11.31527
O         10.13245      -10.20994       12.18646
C          7.26732       -9.43278       12.49505
C          5.95760       -8.90645       12.43658
C          5.57933       -8.16758       11.30492
C          6.46253       -7.92072       10.22260
S          3.94355       -7.62391       11.43607
C          3.76419       -8.32744       12.95931
C          4.88014       -8.99747       13.38367
Br         2.19128       -8.19951       13.96860
H         -3.47020       -2.13230        1.25804
H         -4.15748       -0.31383        2.61327
H         -2.71318        0.70923        2.43933
H         -3.27405        0.17602        4.04815
H         -1.43650       -0.20764        5.37243
H         -0.40196        0.48890        4.08767
H          0.23434       -0.73703        5.18848
H          0.60739       -2.76475        4.08556
H         -0.06990       -5.72853       -1.20271
H          2.65350       -4.33867        1.15963
H          7.86631       -7.78560        1.59570
H          7.49627      -11.45213       -1.47981
H         10.83269      -16.33482        0.76715
H         12.51951      -16.82072        2.99216
H         13.15218      -17.79431        5.35182
H         13.19839      -16.90224        7.74454
H         13.40810      -15.18651        9.45515
H         13.41764      -13.01739       10.76558
H         12.36573      -10.64723       10.73401
H         11.15351       -9.69383        8.24236
H          7.60292      -10.03175       13.33727
H          6.09282       -7.36601        9.36766
H          4.94749       -9.51941       14.33073
