110

C         -3.69841        0.97091       -4.33494
C         -3.82727        0.78685       -5.66940
C         -3.00080       -0.10947       -6.40253
N         -2.32804       -0.83957       -7.00099
C         -4.85580        1.41921       -6.42544
N         -5.69655        1.94047       -7.03388
C         -2.77986        0.24470       -3.41520
C         -3.30310        0.32679       -2.12081
C         -2.66456       -0.16902       -0.99172
C         -1.38252       -0.73620       -1.16718
C         -0.85416       -0.82971       -2.46522
C         -1.54525       -0.36002       -3.61043
S          0.71981       -1.54323       -2.44515
C          0.71651       -1.65713       -0.76185
C         -0.44591       -1.21662       -0.18864
Br         2.16942       -2.31061        0.22294
C         -4.52572        1.14511       -2.11007
O         -5.29034        1.26063       -1.17778
C         -4.57847        1.77716       -3.47173
C         -5.13985        2.97552       -3.70844
C         -5.85704        3.76215       -2.75320
C         -5.15341        4.59959       -1.91209
S         -6.16859        5.39029       -0.81371
C         -7.56338        4.66663       -1.48701
C         -7.30063        3.83798       -2.56941
C         -8.43747        3.24878       -3.22867
C         -8.24510        2.21531       -4.33681
C         -8.11094        0.78957       -3.80975
C         -9.79673        3.63875       -2.82961
C        -10.97978        3.19816       -3.68966
C        -11.57932        1.85941       -3.28459
C        -10.00417        4.44196       -1.64726
C        -11.17455        4.97137       -0.94100
C        -10.83747        5.60137        0.24058
S         -9.17032        5.74776        0.44566
C         -8.85935        4.89421       -1.00013
C        -12.55826        4.86063       -1.30693
C        -13.50531        5.77296       -1.01607
C        -14.86943        5.62315       -1.39904
C        -15.80510        6.63903       -1.62353
C        -17.05371        6.10980       -2.00795
C        -17.02751        4.73548       -2.03260
S        -15.59069        4.04724       -1.59770
C        -18.28455        4.25635       -2.43472
C        -19.11494        5.32891       -2.65832
C        -18.38755        6.57058       -2.39651
C        -18.83880        7.83177       -2.49286
C        -18.00276        8.94803       -2.22119
N        -17.31592        9.85542       -1.99490
C        -20.17612        8.11972       -2.87806
N        -21.27302        8.34915       -3.18991
C        -20.39103        4.90784       -3.07656
C        -20.45905        3.51557       -3.15984
S        -18.95880        2.76775       -2.70982
C        -21.58932        2.71876       -3.56832
C        -21.57108        1.46537       -4.18255
C        -22.87718        1.03364       -4.47958
C        -23.82098        1.94863       -4.06953
S        -23.21001        3.30250       -3.33568
C        -25.09535        1.49955       -4.46536
C        -24.95067        0.31339       -5.14380
C        -23.54568       -0.08841       -5.13143
C        -23.01660       -1.24649       -5.57275
C        -21.61750       -1.50474       -5.49366
N        -20.47666       -1.70726       -5.44119
C        -23.84024       -2.27372       -6.11083
N        -24.55707       -3.07763       -6.53560
C        -26.16593       -0.10395       -5.71846
C        -27.22678        0.71344       -5.32641
S        -26.65077        2.06677       -4.37375
C        -28.60942        0.67605       -5.65039
C        -29.34767       -0.40863       -5.92915
C        -30.67826       -0.10751       -6.62309
O        -31.22195        0.97856       -6.72292
C        -31.05961       -1.37724       -7.15366
C        -30.19365       -2.39399       -6.84540
C        -29.13808       -1.89072       -5.98133
C        -28.31626       -2.67411       -5.24203
C        -27.62078       -2.21067       -4.09089
N        -27.05394       -1.87572       -3.13556
C        -28.13825       -4.05870       -5.53021
N        -27.98030       -5.17960       -5.78399
C        -30.65254       -3.63114       -7.34855
C        -31.85419       -3.47314       -8.02529
S        -32.39033       -1.83142       -8.05233
H         -3.10618       -0.04867       -0.00578
H         -1.06414       -0.42537       -4.58022
H         -0.62646       -1.20513        0.87973
H         -4.98608        3.46773       -4.66569
H         -4.08690        4.77091       -1.86168
H         -7.36417        2.46993       -4.92801
H         -9.05127        2.24090       -5.07076
H         -7.13368        0.61385       -3.35750
H         -8.22537        0.07356       -4.63127
H         -8.85726        0.55275       -3.04725
H        -10.71898        3.19149       -4.75188
H        -11.75436        3.96909       -3.65680
H        -10.88314        1.03546       -3.44560
H        -12.46854        1.64773       -3.88676
H        -11.87006        1.84590       -2.22990
H        -11.49807        6.01046        0.99289
H        -12.83949        3.97702       -1.86225
H        -13.24427        6.69428       -0.49404
H        -15.55385        7.68958       -1.52943
H        -21.22554        5.55138       -3.32648
H        -20.65395        0.94076       -4.42322
H        -26.28801       -0.95278       -6.37515
H        -29.08378        1.65596       -5.75008
H        -30.19427       -4.60453       -7.22461
H        -32.45518       -4.24176       -8.49330
