85

C          8.99997        2.15255       -1.68713
C          9.13149        2.64147       -0.39263
C          8.08380        3.54009       -0.09541
C          7.21723        3.66969       -1.15747
S          7.61280        2.78468       -2.50749
C          6.19440        4.56916       -0.80054
C          6.41461        5.02603        0.47812
C          7.62131        4.38448        1.00807
C          8.17060        4.52468        2.22974
C          7.59429        5.37699        3.20799
N          7.11860        6.07793        4.00234
C          9.34953        3.82419        2.60467
N         10.31049        3.25100        2.90956
C          5.43072        5.96676        0.86487
C          4.50911        6.19598       -0.16518
S          4.82781        5.15083       -1.52422
C          3.36468        7.11601       -0.19875
C          2.63248        7.48562        0.94806
C          1.52368        8.37684        0.91143
C          1.01385        8.97221       -0.27465
C          1.71357        8.58521       -1.44227
C          2.88997        7.70774       -1.39921
N          3.36391        7.61714       -2.65310
O          2.49364        8.30845       -3.45589
N          1.46660        8.85277       -2.72987
C         -0.16938        9.84884       -0.31993
S         -1.43415        9.50479        0.78768
C         -2.37161       10.85349        0.31114
C         -1.88238       11.37165       -0.88119
C         -0.49983       10.95885       -1.09943
C          0.37213       11.69031       -2.10038
N          1.59020       12.11908       -1.41345
C         -0.30679       12.92958       -2.71800
C         -1.76345       12.63939       -3.06427
C         -2.56503       12.38439       -1.77612
N         -3.89023       11.88116       -2.14508
C         -3.52715       11.24148        1.05187
C         -3.56091       11.19355        2.39627
C         -4.71514       11.61866        3.18380
C         -6.05127       11.55025        2.74708
C         -7.14868       11.94767        3.54662
C         -7.01878       12.44549        4.86426
C         -5.68207       12.50362        5.33806
C         -4.54671       12.09132        4.50995
N         -3.42795       12.25481        5.22953
O         -3.82630       12.75529        6.45252
N         -5.19441       12.91540        6.51879
C         -8.14527       12.86481        5.69880
C         -8.28410       12.83087        7.08861
C         -9.53465       13.34073        7.49362
C        -10.29223       13.73598        6.41534
S         -9.56783       13.53167        4.94049
C        -11.52693       14.23184        6.88018
C        -11.54888       14.15164        8.25645
C        -10.28310       13.58236        8.72630
C         -9.89824       13.34365        9.99357
C        -10.74459       13.63816       11.09679
N        -11.43977       13.87880       11.99686
C         -8.63033       12.77769       10.29959
N         -7.59824       12.31492       10.56175
C        -12.76467       14.63300        8.78468
C        -13.60460       15.05581        7.76186
S        -12.90301       14.85981        6.19048
H          9.64461        1.45339       -2.20228
H          9.94433        2.34352        0.25776
H          5.38611        6.48883        1.81344
H          2.90466        7.06646        1.91809
H          1.03812        8.59166        1.86571
H          0.62126       11.02759       -2.92907
H          1.33622       12.76301       -0.66462
H          2.17049       12.65014       -2.05947
H          0.23649       13.22857       -3.62360
H         -0.27172       13.78811       -2.03418
H         -1.80788       11.77215       -3.73842
H         -2.19245       13.48785       -3.61157
H         -2.67918       13.32599       -1.22604
H         -3.78416       10.95517       -2.56142
H         -4.28348       12.46969       -2.87784
H         -4.35813       11.65466        0.48761
H         -2.70372       10.85314        2.97101
H         -6.26880       11.16472        1.74986
H         -8.13952       11.84507        3.10255
H         -7.50879       12.45281        7.74435
H        -13.05061       14.68607        9.82789
H        -14.59910       15.47200        7.84957
