112

C          7.14825       -0.77010        0.47782
C          8.55391       -0.65362        0.61036
C          9.12511        0.58567        1.20570
O         10.13881        0.57718        1.87837
O          8.41418        1.70767        0.98029
C          9.39708       -1.75304        0.30265
C         10.82532       -1.72727        0.46743
N         11.97828       -1.80745        0.56377
C          8.83753       -2.95943       -0.13936
C          7.46020       -3.03523       -0.24585
C          6.60151       -1.96112        0.02303
C          5.20085       -2.44072       -0.12352
C          4.11544       -1.69263       -0.42730
C          4.20685       -0.27932       -0.58590
N          4.36144        0.86674       -0.69248
C          2.84070       -2.27567       -0.69396
N          1.81347       -2.76924       -0.90274
C          5.28185       -3.90856       -0.06593
C          6.68877       -4.26717       -0.45440
O          7.14526       -5.32138       -0.83585
C          4.42268       -4.75829        0.51806
C          4.76551       -6.10852        0.79316
S          4.36299       -7.30271       -0.34214
C          5.01368       -8.57602        0.61141
C          5.47838       -8.09227        1.83567
C          5.37091       -6.64702        1.91960
C          5.81435       -5.83604        3.11292
C          6.90775       -6.50217        3.92321
S          6.37461       -8.10258        4.47190
O          7.50605       -8.73276        5.12717
O          5.12261       -7.92885        5.18610
C          6.06104       -8.96145        2.92873
C          4.95824       -9.92597        0.13914
C          5.01995      -10.24786       -1.16717
C          4.92853      -11.59351       -1.72732
C          4.40860      -11.74219       -2.96471
C          4.25911      -13.03123       -3.58830
C          4.71182      -14.26548       -2.93153
C          5.29496      -14.31524       -1.73601
S          5.57867      -12.91254       -0.75723
C          4.44105      -15.31993       -3.82345
C          3.87115      -14.81815       -4.96783
C          3.55949      -15.81073       -5.91034
C          3.92910      -17.05720       -5.42137
S          4.63545      -16.97781       -3.83722
C          3.76320      -13.38404       -4.81300
C          3.29773      -12.50608       -5.86213
C          2.32649      -11.58904       -5.72606
C          1.98375      -10.74198       -6.81798
S          0.76378      -11.22817       -7.90548
C          0.91196       -9.81299       -8.88142
C          1.91065       -8.97895       -8.38041
C          2.49665       -9.49839       -7.15794
C          3.58260       -8.78827       -6.38425
C          3.58565       -7.28532       -6.58771
S          3.75526       -6.89283       -8.30597
O          3.59270       -5.45668       -8.44553
O          4.94682       -7.55116       -8.80648
C          2.32297       -7.67192       -9.00651
C          0.03670       -9.72554      -10.01189
C         -0.01740       -8.67760      -10.84847
C         -0.89533       -8.59957      -11.98752
C         -0.93928       -9.44248      -13.02485
C         -2.15125       -9.38513      -13.89224
O         -2.93410       -8.46952      -14.03368
C         -2.25845      -10.72750      -14.48157
C         -1.16078      -11.52254      -14.11093
C         -1.14717      -12.85630      -14.49284
C         -2.17934      -13.35395      -15.31895
C         -3.26552      -12.52177      -15.68676
C         -3.31249      -11.19340      -15.24422
C         -4.34228      -12.96578      -16.52001
N         -5.24942      -13.23056      -17.20465
C         -2.13644      -14.77670      -15.75252
O         -3.14407      -15.43234      -15.93722
O         -0.89861      -15.28295      -15.92186
C         -0.19956      -10.66426      -13.36647
C          1.14016      -10.86043      -13.28844
C          2.03832       -9.80156      -12.96268
N          2.77078       -8.92526      -12.75913
C          1.75419      -12.08987      -13.66625
N          2.19276      -13.11710      -13.98179
H          6.50178        0.03432        0.81858
H          7.69141        1.68733        0.32646
H          9.45072       -3.83883       -0.33424
H          3.46754       -4.42784        0.91383
H          4.93626       -5.64735        3.74304
H          6.18500       -4.85815        2.78367
H          7.14643       -5.91124        4.81358
H          7.82568       -6.63974        3.34243
H          5.38756       -9.78917        3.17378
H          7.02251       -9.37014        2.59983
H          4.84558      -10.70492        0.88810
H          5.12504       -9.46215       -1.91453
H          4.05349      -10.88058       -3.52111
H          5.63012      -15.26150       -1.32484
H          3.09760      -15.65598       -6.87635
H          3.82373      -18.01932       -5.90387
H          3.79213      -12.64276       -6.82336
H          1.79007      -11.46299       -4.78953
H          4.54862       -9.21221       -6.68419
H          3.46211       -8.98391       -5.31251
H          4.42646       -6.81813       -6.06714
H          2.65664       -6.82209       -6.23815
H          2.56385       -7.80827      -10.06400
H          1.50270       -6.95279       -8.89719
H         -0.63654      -10.56524      -10.18527
H          0.55872       -7.77259      -10.72016
H         -1.60346       -7.77001      -11.93932
H         -0.37347      -13.52943      -14.13981
H         -4.14504      -10.53425      -15.48551
H         -0.12343      -14.69510      -15.85734
