84

C          3.80529        3.87986       -1.98359
C          4.29482        2.99520       -1.03359
C          3.58563        2.81139        0.14770
C          2.39126        3.52077        0.40864
C          1.91902        4.43446       -0.55904
C          2.63773        4.59606       -1.77210
N          2.22264        5.42424       -2.75178
C          1.09280        6.14094       -2.52902
C          0.39560        6.02659       -1.33563
N          0.79110        5.15670       -0.37754
C         -0.81139        6.85109       -1.01652
C          0.61839        7.02419       -3.64341
C          1.65722        3.26238        1.66667
N          1.74466        2.01614        2.18162
C          1.03943        1.77709        3.30203
C          0.25474        2.71596        3.92367
C          0.26039        3.96987        3.35572
N          0.96961        4.25970        2.24946
C         -0.49931        5.05608        3.99305
C         -0.18623        6.35262        3.84015
C         -0.85861        7.43145        4.54164
C         -0.72982        8.74012        4.26937
C         -1.35764        9.80532        5.01281
C         -1.10120       11.03266        4.52849
C         -0.23967       11.03109        3.35436
S          0.21358        9.37720        2.95150
C          0.16716       12.09573        2.63803
C         -0.20189       13.48412        2.83976
C          0.28417       14.31855        1.90446
C          1.09252       13.65716        0.90352
S          1.24636       11.95861        1.24805
C          1.64543       14.26310       -0.16097
C          2.45284       13.58629       -1.16661
N          3.78641       13.61471       -1.00365
C          4.50198       12.95556       -1.93058
C          3.94077       12.30584       -3.00388
C          2.56264       12.35595       -3.08968
N          1.80453       13.00870       -2.18840
C          1.87108       11.65574       -4.18673
C          0.53445       11.65157       -4.35008
C         -0.24027       10.93475       -5.39922
C          0.41543       10.17423       -6.38468
C         -0.30583        9.49921       -7.36065
C         -1.69031        9.59290       -7.37103
C         -2.37069       10.33386       -6.41909
C         -1.65701       11.00821       -5.39789
N         -2.35479       11.68938       -4.45057
C         -3.71098       11.69804       -4.52199
C         -4.38364       11.05922       -5.55763
N         -3.71159       10.36837       -6.50713
C         -5.87538       11.09338       -5.68893
C         -4.44220       12.41506       -3.42768
H          4.34654        4.02163       -2.91782
H          5.21644        2.44872       -1.21561
H          3.96800        2.10376        0.88323
H         -0.55991        7.91611       -1.03219
H         -1.18592        6.61453       -0.01444
H         -1.61333        6.65239       -1.73249
H          1.31965        7.00329       -4.48375
H          0.52669        8.06091       -3.30662
H         -0.35240        6.67515       -4.01016
H          1.13032        0.77236        3.70419
H         -0.29959        2.48683        4.82239
H         -1.32765        4.75901        4.62784
H          0.64802        6.61575        3.18892
H         -1.49290        7.13246        5.37462
H         -1.96417        9.62152        5.89000
H         -1.48340       11.93630        4.97997
H         -0.83276       13.81489        3.65113
H          0.08875       15.38004        1.88333
H          1.51053       15.32149       -0.34321
H          5.57821       12.96158       -1.77853
H          4.55486       11.78452       -3.72568
H          2.52365       11.11068       -4.85664
H         -0.07643       12.21886       -3.64668
H          1.49705       10.08698       -6.41076
H          0.20739        8.90361       -8.11138
H         -2.25926        9.07181       -8.13747
H         -6.35088       10.65276       -4.80779
H         -6.20060       10.52189       -6.56485
H         -6.22335       12.12344       -5.81463
H         -3.74777       12.76616       -2.65780
H         -5.15725       11.74166       -2.94348
H         -4.97716       13.28171       -3.82730
