131

C         -3.19965        0.77991       -3.43501
C         -3.02448        0.03339       -4.55322
C         -1.86539       -0.76822       -4.78637
N         -0.92426       -1.41796       -4.97784
C         -3.96088        0.04846       -5.63857
N         -4.70320        0.06322       -6.51964
C         -2.20550        0.95397       -2.32928
C         -2.56108        2.07785       -1.58161
C         -1.83762        2.55498       -0.49279
C         -0.67335        1.84989       -0.11783
C         -0.32350        0.70013       -0.84177
C         -1.08354        0.22906       -1.94340
S          1.11437       -0.01970       -0.20800
C          1.26932        1.17558        0.97284
C          0.26765        2.10827        0.93737
Br         2.67475        1.21672        2.21054
C         -3.81946        2.65292       -2.06948
O         -4.32191        3.67107       -1.64065
C         -4.31304        1.72379       -3.14565
C         -5.59510        1.70144       -3.55191
C         -6.64707        2.61348       -3.12527
C         -7.95644        2.32576       -3.05028
C         -8.96052        3.23480       -2.54742
C        -10.14685        2.65088       -2.31849
C        -10.16872        1.23028       -2.62258
S         -8.66189        0.77426       -3.42287
C        -11.10826        0.34071       -2.24826
C        -12.28347        0.59832       -1.42942
C        -12.74627       -0.50393       -0.81363
C        -11.93391       -1.67125       -1.09442
S        -10.95200       -1.39667       -2.50521
C        -11.82735       -2.73336       -0.28268
C        -10.80006       -3.78356       -0.39079
C         -9.59717       -3.68612        0.34692
C         -8.65707       -4.70736        0.24578
C         -8.95616       -5.83737       -0.54278
C        -10.11441       -5.92896       -1.29292
C        -11.02499       -4.88204       -1.23552
C         -7.88629       -6.78876       -0.46573
C         -6.85032       -6.26261        0.32369
C         -7.24871       -4.86503        0.86307
C         -6.22331       -3.84722        0.26784
C         -6.38355       -2.38088        0.65471
C         -7.25048       -4.86740        2.41544
C         -8.22004       -5.84650        3.08575
C         -5.67026       -6.97523        0.48666
C         -5.55122       -8.23066       -0.13542
C         -6.62090       -8.75066       -0.89206
C         -7.79571       -8.03514       -1.05644
C         -4.28766       -8.96606       -0.06019
C         -4.23468      -10.30533       -0.09690
C         -3.01279      -11.04644       -0.03526
C         -2.90355      -12.28891        0.46520
C         -3.87340      -13.28180        0.98530
S         -3.21116      -14.87926        0.38137
C         -1.75611      -14.14896       -0.46254
C         -1.51712      -12.82835        0.25805
C         -0.86533      -11.70879       -0.50694
C         -1.73751      -10.69471       -0.63400
C          0.52384      -11.71372       -0.95266
C          1.48207      -12.48342       -0.27496
C          2.78354      -12.50056       -0.75302
C          3.13746      -11.76418       -1.90226
C          2.21135      -10.98148       -2.56279
C          0.90292      -10.96040       -2.08482
C          4.53576      -11.95918       -2.18533
C          5.09599      -12.78550       -1.19302
C          4.00274      -13.27051       -0.22716
C          4.34112      -12.91965        1.25308
C          4.49394      -11.42904        1.57399
C          3.77779      -14.81055       -0.39047
C          3.31090      -15.26591       -1.78001
C          6.45586      -13.05270       -1.19178
C          7.26652      -12.48410       -2.19112
C          6.67453      -11.73251       -3.22728
C          5.30365      -11.46499       -3.22582
C          8.72347      -12.67799       -2.17466
C          9.42607      -12.79370       -1.03948
H         -2.16774        3.43712        0.04981
H         -0.76441       -0.68061       -2.43848
H          0.19762        2.94505        1.62209
H         -5.94293        0.92099       -4.22418
H         -6.32612        3.60373       -2.80642
H         -8.75066        4.27646       -2.34333
H        -10.99527        3.17880       -1.90892
H        -12.69523        1.58542       -1.27298
H        -13.56418       -0.50976       -0.10580
H        -12.46077       -2.81501        0.59624
H         -9.40935       -2.81678        0.96937
H        -10.29955       -6.78576       -1.93167
H        -11.90584       -4.93035       -1.86752
H         -6.24146       -3.90520       -0.82928
H         -5.20340       -4.14191        0.55431
H         -7.40566       -2.02571        0.53011
H         -5.75250       -1.75685        0.01028
H         -6.07221       -2.20027        1.68734
H         -7.48288       -3.86407        2.79199
H         -6.24077       -5.10520        2.77637
H         -9.25361       -5.49511        3.01082
H         -7.98306       -5.93423        4.15195
H         -8.16483       -6.85247        2.66010
H         -4.86049       -6.55851        1.07778
H         -6.54522       -9.71758       -1.38247
H         -8.60194       -8.44759       -1.65202
H         -3.38490       -8.36721        0.02990
H         -5.13913      -10.90310       -0.16788
H         -4.88810      -13.14121        0.60650
H         -3.88642      -13.28793        2.07874
H         -1.99864      -14.01120       -1.52280
H         -0.89928      -14.82271       -0.38428
H         -1.02917      -12.97724        1.22946
H         -1.56162       -9.74319       -1.11512
H          1.22537      -13.05098        0.61288
H          2.48605      -10.39323       -3.43054
H          0.17433      -10.35672       -2.62189
H          5.27459      -13.41828        1.54751
H          3.56272      -13.31971        1.91606
H          5.27986      -10.96254        0.97326
H          4.76671      -11.29698        2.62794
H          3.56141      -10.87851        1.41531
H          3.02921      -15.15964        0.33465
H          4.70559      -15.34851       -0.15277
H          2.27710      -14.95917       -1.97261
H          3.34045      -16.35799       -1.85634
H          3.94356      -14.86654       -2.57733
H          6.89250      -13.67515       -0.41730
H          7.27868      -11.31485       -4.03055
H          4.85719      -10.86948       -4.01540
H          9.23543      -12.69425       -3.13392
H          8.95883      -12.75276       -0.05960
H         10.50222      -12.92183       -1.05778
