99

C          8.09181       -2.72425        7.77581
C          7.90570       -2.35609        6.50692
C          7.72744       -1.00534        6.04723
C          7.45391       -0.92316        4.73824
C          7.37526       -2.21467        4.07085
S          7.82169       -3.49916        5.19915
C          6.95283       -2.43184        2.81030
C          6.50185       -1.42021        1.87146
C          5.92859       -1.92016        0.76763
C          5.88794       -3.36538        0.74358
S          6.77014       -4.03288        2.09653
C          5.21816       -4.07746       -0.17571
C          5.12701       -5.49905       -0.14293
S          3.82502       -6.23189        0.68321
C          4.34412       -7.83620        0.31545
C          5.48831       -7.79093       -0.48185
C          5.95318       -6.44699       -0.71653
O          7.00840       -6.00596       -1.45804
C          8.16939       -6.82590       -1.43550
C          6.11209       -8.96037       -1.02094
N          6.62173       -9.89738       -1.48606
C          3.52524       -8.97600        0.81860
C          2.81120       -8.88419        2.03392
C          2.03239       -9.95631        2.46299
C          1.96713      -11.14846        1.71769
C          2.65998      -11.26801        0.53046
C          3.42531      -10.18189        0.08487
C          1.13121      -12.10387        2.40805
C          0.66148      -11.52570        3.60573
C          1.18442      -10.08955        3.73429
C         -0.00862       -9.08965        3.76001
C         -0.92234       -9.10051        2.53071
C          2.04979       -9.92650        5.01582
C          3.30661      -10.79927        5.07998
C         -0.16271      -12.23137        4.47275
C         -0.51727      -13.53864        4.12806
C         -0.04640      -14.11524        2.93216
C          0.78017      -13.39716        2.06394
C         -1.39392      -14.31384        5.00227
C         -0.91061      -15.08844        5.98601
C         -1.77163      -15.91340        6.77422
S         -1.15895      -17.41696        7.35071
C         -2.69297      -17.92871        7.93108
C         -3.60661      -16.89441        7.86131
C         -3.07925      -15.72929        7.20847
O         -3.71869      -14.56739        6.89858
C         -4.56310      -14.03774        7.91051
C         -4.93372      -17.04279        8.36914
N         -5.99926      -17.14929        8.82630
C         -2.83313      -19.25663        8.44347
C         -3.09302      -20.32630        7.67124
C         -3.09794      -21.68808        8.15742
C         -3.00192      -22.60115        7.17767
C         -2.91796      -22.01151        5.84988
S         -3.34307      -20.29973        5.94244
C         -2.45705      -22.61066        4.73426
C         -1.94700      -23.96860        4.63664
C         -1.33441      -24.23598        3.47387
C         -1.33487      -23.12123        2.56202
S         -2.24164      -21.77729        3.19001
C         -0.70897      -23.08038        1.38343
H          8.11927       -1.99856        8.58012
H          8.20627       -3.76948        8.04679
H          7.79333       -0.15053        6.70604
H          7.27427        0.01507        4.23559
H          6.58593       -0.35904        2.05676
H          5.50374       -1.31088       -0.01852
H          4.68149       -3.57270       -0.97358
H          9.03624       -6.18708       -1.63098
H          8.12021       -7.56087       -2.24418
H          8.33001       -7.30998       -0.46603
H          2.86038       -7.99414        2.65473
H          2.61863      -12.18118       -0.05347
H          3.93222      -10.31122       -0.86637
H          0.36698       -8.06661        3.88665
H         -0.63601       -9.29631        4.63800
H         -0.39506       -8.75845        1.63490
H         -1.76808       -8.42251        2.69036
H         -1.33720      -10.09310        2.33095
H          1.43906      -10.14873        5.90064
H          2.36719       -8.88043        5.11874
H          3.09530      -11.84949        4.85939
H          3.74237      -10.75551        6.08352
H          4.07046      -10.44715        4.37919
H         -0.52984      -11.77812        5.38831
H         -0.32948      -15.13297        2.67106
H          1.13206      -13.85067        1.14386
H         -2.45241      -14.25020        4.76778
H          0.16412      -15.14997        6.14693
H         -4.59826      -12.95146        7.77737
H         -4.19124      -14.23582        8.92135
H         -5.58185      -14.41386        7.78247
H         -2.65385      -19.39336        9.50539
H         -3.11109      -21.93565        9.21021
H         -2.93162      -23.66342        7.36304
H         -2.01237      -24.68729        5.44078
H         -0.86350      -25.18001        3.23724
H         -0.13290      -23.92155        1.01529
H         -0.74280      -22.19256        0.75875
