101

C         -3.58261       -1.93710       -0.60580
C         -2.56891       -2.18469        0.25897
C         -1.84534       -3.41147        0.26830
N         -1.25063       -4.40970        0.28175
C         -2.08956       -1.21517        1.19463
N         -1.69997       -0.43789        1.95278
C         -4.04704       -2.83600       -1.71224
C         -4.80736       -2.07003       -2.59836
C         -5.40951       -2.56719       -3.74728
C         -5.25883       -3.93983       -4.02675
C         -4.50564       -4.72877       -3.14354
C         -3.89078       -4.19628       -1.97664
S         -4.46140       -6.37369       -3.68084
C         -5.42583       -6.03183       -5.02475
C         -5.78956       -4.71610       -5.11136
Br        -5.95315       -7.32455       -6.27387
C         -4.94654       -0.68632       -2.12669
O         -5.47059        0.20595       -2.75820
C         -4.32514       -0.65940       -0.75929
C         -4.57713        0.29609        0.15222
C         -5.39135        1.50791       -0.02171
C         -4.80026        2.69415       -0.47356
C         -5.58938        3.83286       -0.56190
C         -6.94686        3.80538       -0.17765
C         -7.53178        2.64194        0.28613
C         -6.74749        1.48804        0.36287
C         -7.49094        5.13967       -0.25986
C         -6.48276        6.03077       -0.68479
C         -5.20601        5.24619       -1.02444
C         -3.96561        5.80979       -0.27913
C         -4.05340        5.80522        1.24720
C         -4.94116        5.25661       -2.56251
C         -6.02074        4.60678       -3.43539
C         -6.69994        7.40283       -0.68116
C         -7.95272        7.88320       -0.26775
C         -8.96848        6.97288        0.09570
C         -8.74521        5.59754        0.09262
C         -8.14286        9.33128       -0.10550
C         -9.32222        9.94965       -0.27625
C         -9.52569       11.37689       -0.05320
C        -10.75734       11.92008        0.34664
C        -11.90841       11.19202        0.56500
S        -13.21377       12.18251        1.07548
C        -12.25751       13.60068        0.97133
C        -10.97191       13.33284        0.55275
C         -9.99647       14.33646        0.34878
N        -10.27747       15.70341        0.43783
C         -8.72588       13.81787       -0.09014
C         -8.54477       12.38499       -0.26127
C         -7.56233       14.68558       -0.42741
N         -6.66685       14.26937       -1.37425
N         -5.48923       15.02269       -1.80285
C         -5.14244       16.25080       -1.33184
C         -6.01992       16.74718       -0.32336
C         -7.22379       15.94180        0.15714
N         -7.85796       16.56340        1.17450
S         -7.14564       18.03076        1.40230
N         -5.92640       17.93766        0.30273
C         -3.96223       16.96098       -1.82852
C         -3.41273       16.87540       -3.12930
C         -3.88632       16.05828       -4.13247
S         -2.99087       16.21633       -5.58958
C         -1.94871       17.39097       -4.90548
C         -2.26756       17.65567       -3.59352
C         -1.55875       18.58742       -2.81843
N         -0.43406       19.33356       -3.17544
C         -2.06810       18.63766       -1.50889
C         -3.19505       17.87981       -1.04866
H         -5.99723       -1.91650       -4.38907
H         -3.34227       -4.87083       -1.32813
H         -6.40991       -4.30690       -5.90016
H         -4.21344        0.22054        1.17134
H         -3.74516        2.74054       -0.72176
H         -8.56634        2.62500        0.61473
H         -7.19664        0.58090        0.75752
H         -3.77767        6.84252       -0.60134
H         -3.07290        5.23809       -0.56426
H         -4.89154        6.40764        1.60866
H         -3.13697        6.22802        1.67275
H         -4.15919        4.79122        1.64328
H         -3.99770        4.73589       -2.77468
H         -4.80606        6.29042       -2.90512
H         -6.03498        3.51950       -3.30518
H         -5.81749        4.80178       -4.49312
H         -7.01959        4.99480       -3.21698
H         -5.90277        8.08797       -0.95417
H         -9.93735        7.32876        0.43590
H         -9.52701        4.91582        0.40861
H         -7.25666        9.88104        0.20247
H        -10.19371        9.38146       -0.58789
H        -12.08555       10.13213        0.45899
H        -12.71397       14.54693        1.22236
H        -11.18319       15.93110        0.82773
H         -9.54458       16.21132        0.93704
H         -7.56337       12.04671       -0.60582
H         -4.70575       15.35420       -4.11775
H         -1.16233       17.81350       -5.51358
H         -0.17249       19.26842       -4.15223
H         -0.47389       20.29711       -2.85563
H         -1.57822       19.29239       -0.78670
H         -3.46058       18.03796       -0.00158
