102

C        -10.56224        8.45087        1.58573
C        -10.48093        7.58285        0.53037
C         -9.14414        7.07298        0.33120
N         -8.80583        6.20744       -0.66240
C         -9.90126        5.88313       -1.40801
C        -11.20694        6.39178       -1.23593
C        -12.30561        5.96766       -2.17975
C        -12.03743        6.38312       -3.62044
N        -11.55134        7.26942       -0.24873
C         -8.22869        7.59565        1.21880
S         -9.03155        8.66091        2.33270
C         -6.83349        7.46984        1.29918
C         -5.83074        8.45669        0.84318
N         -4.60653        8.26789        1.24952
C         -4.71202        7.13283        1.99266
C         -6.05309        6.60015        1.93854
C         -6.07233        5.31665        2.70541
S         -7.08385        4.03064        2.39627
C         -4.77244        5.38497        3.48620
C         -3.98915        6.45160        2.87630
N         -2.77909        6.57571        3.47074
C         -2.85189        5.70185        4.43111
C         -4.11849        4.91614        4.56216
C         -4.43812        4.06709        5.70459
C         -5.68562        3.54954        5.83010
C         -6.14613        2.92520        7.05214
C         -7.38952        2.56081        7.46235
C         -8.79152        2.78131        6.90806
C         -9.15952        4.22105        6.43092
N         -8.33703        4.86240        5.41928
C         -9.17828        1.65428        5.92241
N        -10.55615        1.74043        5.42507
C         -7.15088        1.85776        8.73089
C         -7.98808        1.17091        9.52330
C         -7.53079        0.52800       10.82300
C         -6.03861        0.69710       11.10301
C         -5.20381        1.38941       10.30631
C         -5.73925        1.94715        9.09419
C         -5.14920        2.61900        8.09495
C         -3.79859        3.09614        7.93712
C         -3.48713        3.80623        6.83130
C         -8.31843        1.09569       11.97761
C         -9.60172        0.81807       12.25700
C        -10.28612        1.36181       13.38642
C        -11.68033        1.87766       13.39432
N        -12.13854        2.31795       14.53374
C        -11.09392        2.12100       15.36618
C         -9.96884        1.52523       14.67337
C         -8.84964        1.30642       15.65189
S         -7.35597        0.60784       15.43504
C         -9.43013        1.86647       16.90634
C        -10.77992        2.31425       16.64619
N        -11.33862        2.83198       17.77931
C        -10.38257        2.70700       18.65342
C         -9.12219        2.10826       18.17273
C         -7.92614        1.90972       18.87376
C         -7.49621        0.82478       19.61090
C         -6.19737        1.03149       20.19976
N         -5.54995        0.12203       20.97481
C         -6.29833       -1.00943       21.10739
C         -7.57633       -1.22797       20.55020
C         -8.22774       -2.57859       20.74907
C         -9.74807       -2.52869       20.80528
N         -8.22776       -0.31553       19.76813
C         -5.67240        2.26061       19.90006
S         -6.73791        3.16655       18.90976
H        -11.43442        8.97954        1.94520
H         -9.69353        5.16693       -2.20062
H        -13.25495        6.41096       -1.85588
H        -12.42706        4.87999       -2.11835
H        -11.92094        7.46891       -3.70377
H        -12.86858        6.07762       -4.26383
H        -11.12680        5.91771       -4.01199
H         -6.14498        9.28302        0.18720
H         -2.02707        5.53905        5.13778
H         -6.40592        3.59042        5.03147
H         -9.47653        2.65966        7.76147
H         -9.17277        4.88642        7.30196
H        -10.18819        4.21806        6.05234
H         -7.53706        5.30109        5.87096
H         -8.85528        5.60330        4.95341
H         -9.08911        0.69175        6.44401
H         -8.48959        1.62296        5.07302
H        -11.21757        1.82483        6.19267
H        -10.78896        0.88649        4.92015
H         -9.02992        1.04065        9.25180
H         -7.72152       -0.55127       10.75180
H         -5.65064        0.24073       12.01105
H         -4.15448        1.50792       10.54836
H         -3.07354        2.92316        8.72482
H         -2.47467        4.18829        6.75096
H         -7.77203        1.78531       12.61928
H        -10.18076        0.17924       11.59533
H        -12.26095        1.87792       12.45914
H        -10.46310        3.02495       19.70777
H         -5.81975       -1.78414       21.70268
H         -7.86952       -3.02398       21.68552
H         -7.90953       -3.23657       19.93228
H        -10.08918       -1.92581       21.65349
H        -10.15263       -3.53935       20.92197
H        -10.17383       -2.10174       19.89148
H         -4.72208        2.66807       20.21359
