101

C         16.47412       -3.44829       -7.27886
C         16.68832       -3.36377       -8.64688
F         17.48796       -4.25852       -9.24099
C         16.11950       -2.34467       -9.39887
C         15.28773       -1.40485       -8.78248
C         15.06280       -1.44934       -7.39743
C         15.70206       -2.47586       -6.63610
C         15.65738       -2.45188       -5.23958
C         15.08809       -1.35135       -4.62923
C         14.30970       -0.44478       -5.36415
C         14.28145       -0.47450       -6.74641
C         13.70434        0.55718       -4.44870
O         12.89019        1.40808       -4.73366
C         14.29132        0.26526       -3.09108
C         15.36390       -0.70495       -3.32629
C         16.64343       -0.57749       -2.89744
C         17.09122        0.64274       -2.29703
N         17.47395        1.66434       -1.91698
C         17.68067       -1.48964       -3.21183
N         18.51021       -2.26420       -3.47794
C         13.80041        0.76326       -1.94557
C         14.17224        0.37762       -0.60794
C         14.63712       -0.96662       -0.15539
N         14.79648       -1.14571        1.12307
C         14.42351        0.05364        1.62847
C         14.08036        0.98090        0.58352
C         13.70079        2.28636        1.22300
S         13.60023        3.75545        0.45496
C         13.61739        1.92097        2.69349
C         14.17709        0.58125        2.81921
N         14.18144        0.15371        4.10037
C         13.62322        1.15224        4.72044
C         13.17309        2.30693        3.89738
C         12.36459        3.38679        4.32639
S         12.48573        4.94029        3.60908
C         11.22024        5.61426        4.52776
C         10.72784        4.69692        5.44280
C         11.39983        3.42052        5.34156
C         10.99084        2.26065        6.21277
C         10.04573        2.63046        7.35864
C          9.47243        1.38442        7.90333
N          9.04321        0.39116        8.31837
C          8.96368        3.62896        6.90457
C          8.04352        3.86026        8.09208
N          7.28016        4.05214        9.07723
C          9.63778        4.94203        6.46682
C         10.86733        6.95739        4.32802
C         11.30765        8.12607        5.11995
N         10.62565        9.22484        4.95834
C          9.68215        8.85991        4.04930
C          9.87246        7.48870        3.62045
C          8.77280        7.11586        2.67744
S          8.59220        5.74735        1.75752
C          7.87532        8.30939        2.78224
C          8.52041        9.31624        3.59476
N          7.69039       10.37162        3.80452
C          6.61001       10.01631        3.17116
C          6.63671        8.69430        2.48849
C          5.54435        8.04727        1.83714
C          4.32535        7.81310        2.34792
C          3.22175        7.41627        1.40954
O          3.32445        7.01649        0.26948
C          1.96743        7.67903        2.13802
C          0.68266        7.44430        1.67332
C         -0.38755        7.70472        2.53962
C         -0.13482        8.28888        3.81559
C         -1.20527        8.53119        4.68479
C         -2.49509        8.16826        4.31824
C         -2.75427        7.58892        3.08371
C         -1.70542        7.37065        2.18830
F         -3.50080        8.36219        5.18070
C          1.18102        8.56703        4.22519
C          2.24210        8.18711        3.41785
C          3.70850        8.06270        3.66054
C          4.25120        7.84274        4.88525
C          5.50140        7.17462        5.04489
N          6.48689        6.57377        5.17994
C          3.56648        8.10930        6.10744
N          3.01377        8.35411        7.09617
H         16.96883       -4.24131       -6.72376
H         16.33976       -2.28081      -10.45996
H         14.86284       -0.60619       -9.38715
H         16.18514       -3.20941       -4.66545
H         13.75616        0.30091       -7.29744
H         12.98398        1.48485       -2.00753
H         14.82528       -1.76133       -0.89006
H         13.48884        1.14894        5.80708
H         11.87060        1.81904        6.68493
H         10.53916        1.49382        5.56985
H         10.63883        3.10195        8.15784
H          8.37500        3.20879        6.07821
H         10.09796        5.43705        7.33398
H          8.88732        5.63474        6.07450
H         12.16106        8.02361        5.80649
H          5.68973       10.61971        3.14725
H          5.73360        7.79782        0.79007
H          0.52922        7.02144        0.68380
H         -1.04926        8.96537        5.66912
H         -3.76986        7.30118        2.83081
H         -1.92364        6.90857        1.22731
H          1.33574        9.02666        5.19626
