76

C          0.66035       -1.11330       -0.41661
C         -0.66850       -1.00457       -0.79275
F         -1.47154       -2.06948       -0.67257
C         -1.16330        0.17241       -1.33979
C         -0.32582        1.28410       -1.48398
C          1.03333        1.20275       -1.14406
C          1.52712       -0.04066       -0.63688
C          2.89485       -0.25046       -0.49853
C          3.73067        0.71540       -1.01888
C          3.27349        2.00708       -1.31549
C          1.92021        2.27508       -1.37924
C          4.42608        2.85645       -1.73687
O          4.41110        4.04425       -1.97414
C          5.60519        1.91428       -1.80478
C          5.01626        0.57922       -1.72724
C          5.19127       -0.40615       -2.64366
C          5.83783       -0.11932       -3.87842
N          6.28065        0.16322       -4.91283
C          4.58525       -1.69339       -2.53693
N          4.11861       -2.74102       -2.40408
C          6.90282        2.26805       -1.80799
C          8.08141        1.37418       -1.68311
C          9.32527        1.63088       -2.27103
N         10.46556        0.85418       -2.22466
C         10.50604       -0.35969       -1.57980
C          9.31475       -0.73995       -0.90154
C          8.10129        0.16953       -0.92301
N          7.11289       -0.31104       -0.14505
S          7.58349       -1.78186        0.43487
N          9.09680       -1.87661       -0.21420
C         11.72745       -1.16052       -1.58568
C         12.15391       -1.99885       -0.54120
N         13.26424       -2.81324       -0.47797
C         14.16938       -2.88081       -1.50227
C         13.88838       -2.06826       -2.63904
C         12.63720       -1.20061       -2.67537
N         12.52417       -0.54154       -3.84314
S         13.84591       -0.90531       -4.76164
N         14.62812       -1.96004       -3.75845
C         15.31384       -3.78104       -1.40523
C         15.89780       -4.44533       -2.49723
N         16.97996       -5.28891       -2.51723
C         17.65420       -5.59457       -1.37258
C         17.18685       -5.02820       -0.16029
C         15.98154       -4.09326       -0.18684
N         15.68973       -3.62556        1.04128
S         16.75665       -4.30180        2.10628
N         17.69160       -5.19594        1.07656
C         18.80128       -6.49537       -1.46374
C         19.31089       -7.39596       -0.52482
C         20.43300       -8.08666       -1.02894
C         20.73986       -7.68932       -2.31051
S         19.73893       -6.52395       -2.93631
C         21.86293       -8.41616       -2.75810
C         22.26613       -9.27466       -1.75630
C         21.38194       -9.11433       -0.60074
C         21.42840       -9.76133        0.57989
C         22.41961      -10.74186        0.85600
N         23.22919      -11.54207        1.08234
C         20.48904       -9.50146        1.61504
N         19.72309       -9.29645        2.46264
C         23.38747      -10.03777       -2.14428
C         23.77424       -9.70835       -3.43779
S         22.77293       -8.48606       -4.14815
H          1.01786       -2.06635       -0.03415
H         -2.19618        0.20897       -1.67122
H         -0.72996        2.18880       -1.93332
H          3.28118       -1.21421       -0.17734
H          1.57111        3.23908       -1.73973
H          7.14491        3.33052       -1.88183
H          9.46814        2.54045       -2.85811
H         11.57121       -2.05530        0.38044
H         15.47642       -4.32371       -3.49640
H         18.86584       -7.52985        0.45365
H         23.90667      -10.78546       -1.55747
H         24.59421      -10.12127       -4.01031
