120

C        -11.52416        0.54015       -5.55935
C        -11.91870       -0.71969       -5.25287
C        -12.64649       -1.54431       -6.16464
N        -13.23870       -2.21565       -6.89912
C        -11.59286       -1.34965       -4.01256
N        -11.32554       -1.85569       -3.00277
C        -11.69792        1.22717       -6.87811
C        -10.83440        2.32530       -6.91337
C        -10.73750        3.21232       -7.97596
C        -11.62616        3.03830       -9.05454
C        -12.51564        1.95548       -9.03130
C        -12.55743        1.02435       -7.95683
S        -13.52134        1.96013      -10.43671
C        -12.81891        3.39461      -11.03437
C        -11.82379        3.86107      -10.21118
C        -10.16878        2.52180       -5.62132
O         -9.41766        3.43660       -5.34914
C        -10.70592        1.45182       -4.71280
C        -10.56757        1.51188       -3.37970
C         -9.79274        2.51875       -2.62356
C         -8.43586        2.39692       -2.30879
C         -7.71465        3.39651       -1.55173
N         -6.40901        3.15863       -1.28113
C         -5.78662        2.06870       -1.78965
C         -6.49168        1.14403       -2.51861
N         -7.82318        1.28119       -2.74831
C         -5.88042        0.02211       -3.14807
N         -5.36842       -0.87176       -3.69335
C         -4.38024        1.93689       -1.51379
N         -3.24209        1.78664       -1.31211
C         -8.33503        4.58717       -1.07049
C         -9.73434        4.72306       -1.36662
C        -10.46878        3.66476       -2.14720
N        -11.77770        3.92873       -2.31133
S        -12.07668        5.36457       -1.55291
N        -10.55928        5.72966       -1.02388
C         -7.62441        5.64232       -0.28032
C         -6.30904        6.09273       -0.30549
C         -6.03299        7.13108        0.66908
N         -4.81347        7.71749        0.84464
C         -3.89054        7.19145       -0.00203
C         -4.13637        6.19084       -0.95461
C         -3.01597        5.67258       -1.80594
N         -5.35546        5.62061       -1.15917
C         -7.13802        7.47986        1.40765
S         -8.47075        6.49968        0.97488
C         -7.29266        8.44981        2.43368
C         -7.61327        9.71255        2.11232
C         -7.77555       10.80532        3.07972
C         -8.68210       11.83735        2.77683
C         -8.73856       12.94621        3.60961
C         -7.90760       13.02411        4.74597
C         -7.03603       12.00057        5.07535
C         -6.96717       10.89247        4.23181
C         -8.08007       14.30986        5.36911
C         -9.00211       15.07096        4.62396
C         -9.58652       14.22962        3.48219
C         -9.45260       14.90600        2.09370
C         -8.03291       15.25000        1.64967
C        -11.07149       13.86112        3.78428
C        -12.03790       15.03361        3.94715
C         -9.25505       16.39536        4.95279
C         -8.60800       16.94979        6.06303
C         -7.73097       16.15509        6.82889
C         -7.45074       14.83713        6.47848
C         -8.89395       18.34429        6.41219
C         -8.02098       19.12752        7.06181
C         -8.29061       20.50008        7.37287
C         -9.26181       20.99664        8.15901
C        -10.34073       20.42941        8.98303
C        -10.38715       19.22493        9.60872
C        -11.53394       18.75241       10.30930
N        -12.46967       18.34855       10.86553
C         -9.27121       18.34329        9.71484
N         -8.38959       17.61198        9.90309
C        -11.32526       21.54563        9.19080
C        -10.78556       22.72247        8.66241
C         -9.48862       22.46747        8.03120
O         -8.79068       23.29595        7.48318
C        -11.38554       23.97383        8.74854
C        -12.59983       24.06647        9.45900
C        -13.15410       22.89814        9.99594
C        -12.54460       21.62520        9.85333
S        -14.61959       23.23346       10.84324
C        -14.51367       24.90185       10.51865
C        -13.40868       25.21154        9.76222
H        -10.05247        4.05418       -7.93700
H        -13.29891        0.23238       -7.98888
H        -13.16813        3.83641      -11.95830
H        -11.26718        4.77001      -10.40723
H        -11.08167        0.82191       -2.72061
H         -2.89817        7.62466        0.09995
H         -2.14055        6.32747       -1.76705
H         -3.34676        5.61050       -2.84704
H         -2.71679        4.67581       -1.46925
H         -7.14435        8.13044        3.46019
H         -7.75898        9.99393        1.07121
H         -9.30865       11.78278        1.89206
H         -6.38608       12.06894        5.94138
H         -6.24166       10.11548        4.46274
H        -10.02874       15.83883        2.07400
H         -9.89702       14.25737        1.32744
H         -7.56454       15.97395        2.32254
H         -8.06042       15.70009        0.65100
H         -7.39642       14.36304        1.59124
H        -11.13141       13.25907        4.70181
H        -11.45292       13.21862        2.97952
H        -11.84070       15.58865        4.86901
H        -13.06599       14.66524        4.02049
H        -11.99412       15.72801        3.10442
H         -9.93529       16.98974        4.35082
H         -7.23828       16.55431        7.71161
H         -6.74655       14.25673        7.06374
H         -9.85421       18.73662        6.08309
H         -7.02890       18.77368        7.33576
H         -7.63041       21.18883        6.83930
H        -10.91104       24.84838        8.31214
H        -13.04105       20.77558       10.30251
H        -15.26822       25.57820       10.89586
H        -13.17186       26.22174        9.45065
