89

C        -11.04392        3.78588       -5.92550
C        -11.04103        5.14058       -6.05851
C        -11.82127        5.82730       -7.04666
N        -12.40031        6.38768       -7.87700
C         -9.81676        5.81377       -5.75485
N         -8.77256        6.30776       -5.65187
C        -10.60534        3.04600       -7.15293
C         -9.68017        2.06999       -6.78452
C         -8.91777        1.35876       -7.69947
C         -9.07447        1.67210       -9.06859
C        -10.02109        2.64004       -9.43994
C        -10.83384        3.30661       -8.49999
S        -10.03816        2.88201      -11.15079
C         -8.91548        1.64453      -11.39032
C         -8.42776        1.11619      -10.22441
Br        -8.43225        1.02179      -13.08744
C         -9.56558        1.97133       -5.32265
O         -8.92719        1.12115       -4.73887
C        -10.42979        3.06381       -4.77398
C        -10.67975        3.22785       -3.46423
N        -10.12257        2.64742       -2.33899
C         -8.81602        2.62105       -1.93692
S         -8.23721        1.22370       -1.08923
C         -6.69466        1.88603       -0.91759
N         -5.70396        1.18227       -0.16810
O         -5.24047        1.77507        0.81555
O         -5.36705        0.06338       -0.57298
C         -6.57169        3.14354       -1.45050
C         -7.81875        3.59641       -1.99895
C         -7.97528        4.94900       -2.46239
C         -9.04328        5.72716       -2.21173
C         -9.18617        7.08272       -2.70691
C        -10.34159        7.67732       -3.05485
C        -10.41628        8.96955       -3.69657
C        -11.61313        9.23500       -4.24272
C        -12.57919        8.15764       -4.09769
S        -11.92239        6.92524       -3.01464
C        -13.74354        8.04031       -4.76892
C        -14.33444        9.01087       -5.67178
C        -15.27398        8.49716       -6.48375
C        -15.43751        7.06085       -6.33174
S        -14.71877        6.57523       -4.80401
C        -15.95350        6.28365       -7.30814
C        -15.84121        4.86293       -7.44258
S        -14.66831        3.88634       -6.63022
C        -14.86617        2.54744       -7.65751
C        -15.95354        2.79111       -8.42297
C        -16.50883        4.07620       -8.36079
S        -17.88651        4.38441       -9.51434
C        -17.67310        2.72046       -9.98872
N        -18.58360        2.14548      -10.94395
O        -18.94305        0.98250      -10.72129
O        -18.88167        2.83098      -11.93424
C        -16.62745        2.01334       -9.39356
C        -13.92268        1.50400       -7.65509
C        -14.04606        0.42907       -6.88012
N        -13.29009       -0.71117       -6.80572
C        -12.37539       -1.32572       -7.60931
S        -11.71202       -2.77952       -6.90167
C        -10.64936       -3.02345       -8.18191
N         -9.72975       -4.12459       -8.18538
O         -8.79537       -4.05117       -8.99587
O         -9.93776       -5.06504       -7.40949
C        -10.77176       -2.07185       -9.15713
C        -11.81918       -1.12702       -8.87362
C        -12.05967       -0.13215       -9.87140
C        -13.20333        0.26986      -10.43214
H         -8.19832        0.61912       -7.35921
H        -11.56945        4.02153       -8.85130
H         -7.68468        0.32925      -10.17907
H        -11.47764        3.90037       -3.15674
H        -10.77599        2.08373       -1.79774
H         -5.66603        3.73643       -1.38565
H         -7.14099        5.36109       -3.02989
H         -9.87239        5.32739       -1.63369
H         -8.25044        7.60499       -2.90757
H         -9.55683        9.62120       -3.78541
H        -11.80703       10.12913       -4.81795
H        -14.03256       10.04811       -5.69640
H        -15.78785        9.06988       -7.24366
H        -16.36922        6.79639       -8.17576
H        -16.39653        0.98161       -9.63709
H        -13.08607        1.60935       -8.32432
H        -14.85220        0.40413       -6.14518
H        -13.47736       -1.22490       -5.94264
H        -10.16819       -2.06181      -10.05916
H        -11.16234        0.27823      -10.31722
H        -14.16750       -0.11522      -10.13147
H        -13.17325        1.03158      -11.20950
