98

C          1.50871       -0.86860       -0.54230
O          0.62773       -1.02083        0.27389
C          2.02470        0.42640       -1.00206
C          3.26445        0.26203       -1.63620
C          3.86916        1.37527       -2.20353
C          3.23142        2.62947       -2.10824
C          1.99253        2.76136       -1.45114
C          1.37148        1.64434       -0.88246
Br         1.06500        4.41455       -1.31433
Br         4.12314        4.10289       -2.91713
C          3.63036       -1.18226       -1.57478
C          4.87586       -1.70583       -1.68103
C          6.02277       -0.90644       -1.94522
N          6.95428       -0.25215       -2.16672
C          5.14273       -3.08627       -1.46199
N          5.33311       -4.21829       -1.28648
C          2.39519       -1.89855       -1.17982
C          2.02972       -3.15784       -1.46802
C          0.74181       -3.70396       -1.21716
S          0.61034       -5.38534       -0.84508
C         -1.10462       -5.20324       -0.85479
N         -1.48929       -3.96918       -1.11162
N         -0.43011       -3.11202       -1.32544
C         -1.91653       -6.34578       -0.63523
C         -3.17458       -6.39088       -1.09770
C         -4.00829       -7.55128       -0.98382
N         -4.42077       -8.12596        0.21997
C         -4.20851       -7.60196        1.55481
C         -5.31981       -6.65533        1.98072
C         -5.25510       -9.24231       -0.00056
O         -5.80437       -9.97501        0.79381
C         -5.31386       -9.32107       -1.46855
C         -4.51714       -8.25122       -2.00166
C         -4.58559       -8.32480       -3.47123
O         -4.01737       -7.61084       -4.27106
N         -5.47038       -9.40333       -3.68598
C         -5.87834       -9.81123       -5.01700
C         -4.94314      -10.83460       -5.63890
C         -5.86640       -9.98791       -2.48165
C         -6.79889      -11.07230       -2.41234
C         -6.61190      -12.19478       -1.70138
C         -7.58577      -13.23346       -1.73139
S         -7.04529      -14.84048       -1.92996
C         -8.63756      -15.49569       -1.97340
C         -9.57312      -14.46115       -1.99108
C         -8.96991      -13.19046       -1.61552
C         -9.80626      -11.97158       -1.24915
C         -9.35792      -11.37114        0.02450
N         -9.07066      -10.88468        1.03783
C        -11.29647      -12.33075       -1.10032
C        -11.77183      -13.21103       -2.24925
C        -11.07300      -14.58970       -2.23859
C        -11.33657      -15.23639       -3.54244
N        -11.54662      -15.72704       -4.57362
C         -8.83109      -16.90779       -2.11766
C         -8.15328      -17.86364       -1.45924
C         -8.24136      -19.27395       -1.95697
O         -9.09583      -19.76416       -2.66293
C         -7.02669      -19.94420       -1.45400
C         -6.25686      -19.05624       -0.68204
C         -7.08393      -17.84063       -0.45315
C         -7.07076      -17.12532        0.69842
C         -8.24784      -16.46142        1.15746
N         -9.24101      -16.01369        1.55689
C         -5.95871      -17.10917        1.58615
N         -5.02435      -17.08340        2.27370
C         -5.02094      -19.47396       -0.21247
C         -4.62712      -20.80742       -0.42498
C         -5.45769      -21.70272       -1.13059
C         -6.66238      -21.25997       -1.68154
Br        -5.03420      -23.54005       -1.35663
Br        -2.95991      -21.32955        0.32673
H          4.80926        1.30834       -2.74429
H          0.41332        1.70689       -0.38985
H          2.70418       -3.82135       -1.99776
H         -1.48525       -7.20114       -0.12314
H         -3.58349       -5.56033       -1.67369
H         -3.23773       -7.10432        1.61975
H         -4.18026       -8.44794        2.25143
H         -5.39961       -5.80429        1.29689
H         -5.12566       -6.27041        2.98672
H         -6.28828       -7.16634        1.99342
H         -5.89889       -8.91896       -5.65277
H         -6.90023      -10.20237       -4.98875
H         -3.92398      -10.44326       -5.71728
H         -5.28705      -11.09142       -6.64658
H         -4.90787      -11.75495       -5.04748
H         -7.69513      -10.93939       -3.01023
H         -5.68627      -12.35874       -1.15177
H         -9.71607      -11.23375       -2.05578
H        -11.89094      -11.40863       -1.06714
H        -11.47943      -12.85269       -0.15106
H        -11.58783      -12.68351       -3.19681
H        -12.85822      -13.34885       -2.18208
H        -11.49876      -15.19655       -1.43050
H         -9.54404      -17.22505       -2.87962
H         -4.36073      -18.80826        0.33547
H         -7.31475      -21.91892       -2.24779
