87

C         -1.00151       -0.01530       -0.83279
C         -2.33353        0.28570       -0.69392
S         -3.23777       -1.12879       -0.29004
C         -1.84210       -2.10669       -0.31187
Cl        -1.98265       -3.77627        0.04255
C         -0.72453       -1.38780       -0.61290
C          0.66927       -1.70760       -0.73906
O          1.20224       -2.79507       -0.65287
C          1.31257       -0.33861       -0.99066
C          0.22097        0.69617       -1.15310
C          0.32561        1.97930       -1.56891
C         -0.81363        2.83031       -1.68310
N         -1.73844        3.52565       -1.76979
C          1.56072        2.58135       -1.95155
N          2.56372        3.06267       -2.25663
C          2.64889       -0.16641       -0.94271
C          3.65549       -1.20806       -0.71610
C          4.21763       -1.93973       -1.73934
N          5.13813       -2.90712       -1.55026
C          5.53059       -3.14781       -0.28789
N          5.07403       -2.47057        0.78109
C          4.14362       -1.51847        0.53844
C          6.51082       -4.22664       -0.08886
N          6.63740       -5.06433        1.03458
C          5.86019       -5.02370        2.25828
C          4.58408       -5.84699        2.19664
C          7.62994       -6.04971        0.83442
O          7.95179       -6.98718        1.53599
C          8.20075       -5.68897       -0.47447
C          7.43238       -4.58746       -0.99303
C          7.95713       -4.27386       -2.33368
O          7.54180       -3.45887       -3.12978
N          9.04217       -5.17668       -2.46917
C          9.68047       -5.38775       -3.75513
C         10.35993       -4.14251       -4.30168
C          9.16330       -6.00114       -1.34804
C         10.15190       -7.04098       -1.20584
C         11.48903       -6.85702       -1.23540
C         12.43613       -7.92519       -1.04154
S         11.98246       -9.30939       -0.09881
C         13.49866      -10.03242       -0.25356
C         14.40468       -9.24973       -0.93884
C         15.77173       -9.72184       -1.06252
O         16.05151      -10.91028       -1.12262
O         16.73836       -8.77469       -1.09327
C         13.76892       -8.05991       -1.45607
S         14.64877       -6.86883       -2.45894
C         14.93343       -7.84777       -3.87050
C         16.12446       -8.39770       -4.17634
C         16.28644       -9.23145       -5.35620
C         16.56598      -10.54793       -5.35094
C         16.01873      -11.35479       -6.52009
O         15.88075      -11.01359       -7.67772
C         15.60407      -12.56635       -5.85575
C         14.87055      -13.65805       -6.20432
S         14.63282      -14.70667       -4.87626
C         15.55898      -13.69991       -3.81064
C         16.02894      -12.61612       -4.49809
C         16.85887      -11.47631       -4.22935
C         17.89492      -11.39956       -3.36487
C         18.13897      -12.39768       -2.37598
N         18.34031      -13.21514       -1.57641
C         18.88842      -10.39124       -3.51907
N         19.70711       -9.59387       -3.72154
Cl        14.18028      -14.03743       -7.72481
H         -2.85584        1.23330       -0.78370
H          3.11323        0.80826       -1.04442
H          3.94958       -1.77321       -2.77904
H          3.79680       -0.99295        1.42427
H          5.64665       -3.99235        2.54849
H          6.48959       -5.43316        3.05778
H          3.80808       -5.32935        1.62462
H          4.19816       -6.01364        3.20872
H          4.75431       -6.82406        1.73377
H          8.90043       -5.71055       -4.45472
H         10.41464       -6.19543       -3.69421
H          9.64125       -3.34076       -4.49499
H         10.85559       -4.37275       -5.24982
H         11.10812       -3.76218       -3.59996
H          9.72035       -8.02564       -1.03181
H         11.88807       -5.85642       -1.38835
H         13.68902      -10.99464        0.20759
H         16.37659       -7.87013       -1.00126
H         14.08697       -7.97921       -4.54173
H         16.99658       -8.25532       -3.54472
H         15.93720       -8.77540       -6.28587
H         15.68298      -13.97858       -2.77138
