103

C        -12.09098       -7.27124      -12.76025
C        -12.15800       -7.94791      -13.98325
F        -12.99032       -7.50552      -14.93405
C        -11.36815       -9.06250      -14.21517
F        -11.42534       -9.70120      -15.39192
C        -10.50295       -9.52445      -13.23320
C        -10.41506       -8.85828      -12.00191
C        -11.21599       -7.70637      -11.74445
C        -11.10035       -7.02966      -10.49598
C        -10.20716       -7.49005       -9.52570
C         -9.42678       -8.61307       -9.84008
C         -9.52179       -9.31178      -11.03366
C         -8.45037       -8.88901       -8.78274
O         -7.69241       -9.84368       -8.73822
C         -8.58282       -7.77999       -7.78930
C         -9.79070       -7.00264       -8.16419
C        -10.48211       -6.14941       -7.36680
C        -11.77377       -5.66859       -7.71252
N        -12.84548       -5.30649       -7.97421
C        -10.02474       -5.73364       -6.08178
N         -9.65310       -5.36993       -5.04403
C         -7.65421       -7.63356       -6.82889
N         -6.56624       -8.44755       -6.56412
C         -5.60692       -8.33293       -5.59828
S         -5.00594       -9.79437       -4.87994
C         -3.97015       -8.94231       -3.86186
N         -3.14845       -9.63716       -2.92820
O         -1.92811       -9.45828       -3.03042
O         -3.72212      -10.30910       -2.06281
C         -3.98255       -7.59094       -4.06946
C         -4.94439       -7.22266       -5.07050
C         -5.14934       -5.86938       -5.50289
C         -4.53722       -4.79028       -4.99512
C         -4.82571       -3.46020       -5.45253
C         -5.20306       -2.45097       -4.64686
C         -5.45221       -2.57007       -3.16658
C         -5.37922       -1.07684       -5.22621
N         -4.10721       -0.43278       -5.06597
C         -3.52286        0.47686       -5.90009
C         -3.64807        0.70459       -7.21368
C         -2.90799        1.66968       -8.02733
C         -1.94034        2.53517       -7.67550
C         -1.19180        3.38593       -8.58252
C         -0.14361        4.00043       -8.00644
C          0.01978        3.67865       -6.59896
S         -1.37033        2.78785       -6.05882
C          1.03912        3.95394       -5.76489
C          2.23892        4.70356       -6.05965
C          3.11328        4.75416       -5.04212
C          2.66930        4.05160       -3.86046
S          1.08829        3.37042       -4.09356
C          3.30353        3.86979       -2.69490
C          4.61794        4.35491       -2.36857
C          5.68800        3.63202       -2.00887
C          7.00749        4.34488       -2.06054
O          7.21289        5.54087       -2.06918
C          8.02285        3.29067       -2.18508
C          9.38341        3.49406       -2.34986
C         10.20600        2.37059       -2.47806
C          9.62499        1.06919       -2.48725
C         10.46089       -0.04858       -2.60854
C         11.83791        0.11652       -2.70503
C         12.41266        1.38002       -2.69784
C         11.59810        2.50732       -2.59080
F         12.62391       -0.96388       -2.79701
C          8.23114        0.91005       -2.35008
C          7.42500        2.02259       -2.14889
C          5.97431        2.19820       -1.82779
C          5.21034        1.25700       -1.21880
C          3.97952        1.55663       -0.57126
N          2.99891        1.76563        0.00864
C          5.63088       -0.09315       -1.04224
N          5.97038       -1.19458       -0.90177
H        -12.72889       -6.40136      -12.62449
H         -9.89414      -10.39925      -13.44858
H        -11.69935       -6.13679      -10.33764
H         -8.88198      -10.17417      -11.20330
H         -7.70917       -6.81808       -6.11898
H         -6.62205       -9.35206       -7.05059
H         -3.33645       -6.90934       -3.52847
H         -5.86680       -5.69459       -6.29830
H         -3.80283       -4.85607       -4.19795
H         -4.65922       -3.27314       -6.51280
H         -5.41899       -3.60260       -2.80750
H         -6.44341       -2.17627       -2.91966
H         -4.70463       -2.00031       -2.60452
H         -6.15447       -0.51332       -4.69738
H         -5.67543       -1.12999       -6.27895
H         -3.79211       -0.36137       -4.09987
H         -2.83462        1.03508       -5.28739
H         -4.32600        0.07130       -7.78187
H         -3.17322        1.61127       -9.08226
H         -1.44490        3.48439       -9.62713
H          0.53268        4.65947       -8.53416
H          2.39913        5.18983       -7.01045
H          4.05266        5.28565       -5.08754
H          2.76356        3.35688       -1.90656
H          4.74028        5.42773       -2.53535
H          9.78350        4.50443       -2.36141
H         10.05916       -1.05864       -2.60828
H         13.49113        1.47933       -2.76934
H         12.06125        3.49221       -2.58183
H          7.82254       -0.09488       -2.39094
