92

C         -2.27254        0.46870       -2.04562
C         -2.24665        1.82092       -1.72840
C         -1.61893        2.24238       -0.53056
C         -1.58539        3.64793       -0.23509
N         -1.56414        4.78554       -0.01403
C         -1.04375        1.30331        0.35574
C         -0.44639        1.70259        1.59890
N          0.03210        2.00107        2.61144
C         -1.06853       -0.05626        0.03881
C         -1.67473       -0.42918       -1.14970
C         -1.84105       -1.80494       -1.62042
O         -1.18882       -2.75153       -1.23909
C         -2.88210       -1.73488       -2.69461
C         -2.86992       -0.32725       -3.16284
C         -3.15830        0.11880       -4.40983
C         -2.94651        1.47135       -4.79832
N         -2.75319        2.57727       -5.08990
C         -3.60581       -0.75170       -5.44589
N         -3.98089       -1.46978       -6.27620
C         -3.75019       -2.71764       -2.98531
C         -3.84231       -3.96589       -2.29513
C         -3.60867       -4.29403       -0.95486
C         -3.94338       -5.62884       -0.67094
C         -4.43652       -6.26199       -1.78423
S         -4.44988       -5.35140       -3.16956
C         -4.84350       -7.55657       -1.41810
C         -4.58931       -7.75198       -0.07992
C         -3.98472       -6.53988        0.47248
C         -3.56608       -6.30978        1.73252
C         -3.66863       -7.30158        2.74577
N         -3.75209       -8.11013        3.57404
C         -3.00458       -5.05981        2.11741
N         -2.56593       -4.03106        2.42995
C         -4.99878       -9.03558        0.33912
C         -5.55262       -9.76159       -0.72004
S         -5.59023       -8.81484       -2.18461
C         -6.08461      -11.13446       -0.74034
C         -6.04464      -11.90341       -1.91017
C         -6.54219      -13.20290       -1.93221
F         -6.50582      -13.84355       -3.10980
C         -7.07009      -13.80938       -0.78533
C         -7.12191      -13.04001        0.38555
C         -6.63837      -11.72835        0.40037
F         -6.72820      -11.04619        1.55212
C         -7.55054      -15.20062       -0.77215
C         -8.55039      -15.77415        0.01909
C         -8.68130      -17.15153       -0.24645
C         -7.81546      -17.56164       -1.23475
S         -6.79709      -16.38914       -1.80018
C         -8.04212      -18.92265       -1.51146
C         -9.04727      -19.37208       -0.68908
C         -9.46996      -18.29486        0.20156
C        -10.32178      -18.37318        1.24223
C        -10.91872      -19.61210        1.60644
N        -11.36287      -20.65249        1.86830
C        -10.61436      -17.24565        2.05401
N        -10.84970      -16.31722        2.70936
C         -9.40272      -20.69756       -0.98718
C         -8.57504      -21.23676       -1.97427
S         -7.45853      -20.04594       -2.58425
C         -8.58855      -22.53045       -2.56244
C         -8.89725      -23.65430       -1.90004
C         -9.36206      -24.80370       -2.73977
O         -9.15249      -25.01518       -3.91424
C        -10.24478      -25.58862       -1.86257
C        -11.06264      -26.63436       -2.26074
C        -11.90901      -27.20314       -1.30479
C        -11.92713      -26.69762        0.01411
C        -11.08932      -25.62410        0.38501
C        -10.22461      -25.07546       -0.55410
C         -9.21100      -23.98342       -0.50080
C         -8.54676      -23.57334        0.60939
C         -7.38577      -22.74573        0.55890
N         -6.43127      -22.08688        0.56265
C         -8.89760      -24.00944        1.91608
N         -9.19990      -24.37448        2.97759
C        -12.79807      -27.25553        1.01166
N        -13.49364      -27.69288        1.82889
C        -12.76462      -28.28390       -1.70228
N        -13.45098      -29.15354       -2.04538
H         -2.71045        2.57119       -2.36575
H         -0.65464       -0.81252        0.70412
H         -4.51928       -2.56135       -3.73952
H         -3.24616       -3.58249       -0.22617
H         -4.90456       -9.44153        1.33987
H         -5.62288      -11.52147       -2.83582
H         -7.52317      -13.44340        1.31166
H         -9.13568      -15.20342        0.72999
H        -10.21222      -21.25235       -0.53222
H         -8.45212      -22.57120       -3.64500
H        -11.04985      -26.97790       -3.29453
H        -11.15551      -25.24073        1.40125
