114

C         -2.29432       -1.30364        0.05224
C         -2.70656       -2.56283        0.32896
C         -1.88589       -3.71879        0.12001
N         -1.23299       -4.65173       -0.04570
C         -3.98430       -2.84037        0.88610
N         -5.04039       -3.06431        1.32503
C         -0.94396       -0.89959       -0.47139
C         -0.83474        0.48678       -0.35517
C          0.22329        1.23498       -0.86140
C          1.29337        0.53801       -1.46301
C          1.24171       -0.86177       -1.50566
C          0.11992       -1.60103       -1.03729
S          2.69196       -1.51206       -2.18411
C          3.34987        0.03508       -2.46561
C          2.49389        1.03626       -2.07295
C         -2.00264        1.04214        0.34310
O         -2.05093        2.10948        0.91529
C         -3.04037       -0.03607        0.30317
C         -4.36323        0.23101        0.29440
C         -5.03293        1.55632        0.33240
C         -5.38756        2.23396        1.51105
C         -6.19934        3.43223        1.49463
N         -6.68272        3.91278        2.65527
C         -6.21856        3.40230        3.82174
C         -5.34047        2.34693        3.83411
N         -4.97396        1.71525        2.68804
C         -4.72081        1.88459        5.03755
N         -4.21779        1.55522        6.03175
C         -6.68103        4.05537        5.00833
N         -7.06273        4.57731        5.97572
C         -6.50840        4.14664        0.31332
C         -6.06672        3.52908       -0.89705
C         -5.42924        2.16438       -0.89086
N         -5.32429        1.64414       -2.12610
S         -5.74850        2.83784       -3.19519
N         -6.11945        4.05329       -2.13726
C         -7.23919        5.44416        0.26686
C         -8.25124        5.73121       -0.67669
C         -8.78127        7.05151       -0.86993
N         -9.53222        7.27838       -1.97472
C         -9.84554        6.27350       -2.82380
C         -9.45197        4.99597       -2.55004
N         -8.69111        4.71953       -1.46082
C         -9.75169        3.89030       -3.40672
N         -9.98874        3.00730       -4.11854
C        -10.60356        6.63991       -3.98057
N        -11.21986        6.92221       -4.92548
C         -8.54285        8.12830        0.03171
C         -7.62358        7.83801        1.08432
C         -6.90675        6.51406        1.15150
N         -5.93548        6.51242        2.08360
S         -6.08637        7.89980        2.96405
N         -7.27681        8.64425        2.10368
C         -9.14829        9.48638       -0.13947
C         -8.51676       10.67287        0.30160
C         -9.05280       11.92247        0.00169
C        -10.18320       12.00388       -0.82987
C        -10.86960       10.87513       -1.22164
C        -10.37979        9.63862       -0.82223
C        -10.53819       13.37388       -1.04761
C         -9.74788       14.18678       -0.22096
C         -8.61248       13.33680        0.44432
C         -8.69549       13.57725        1.97663
C         -7.71067       12.87008        2.89710
C         -7.28557       13.77739       -0.24100
C         -5.99403       13.04137        0.09670
C        -10.06878       15.53290       -0.07357
C        -11.14278       16.05872       -0.81331
C        -11.81279       15.25883       -1.75736
C        -11.51879       13.90256       -1.87159
C        -11.59517       17.43261       -0.57701
C        -12.54193       17.72461        0.33193
C        -12.97027       19.08236        0.59397
C        -12.88567       19.71456        1.77276
C        -13.30693       21.07784        1.99468
C        -13.03799       21.53181        3.22684
C        -12.36815       20.56351        4.08116
S        -12.20861       19.02582        3.22797
C        -11.89823       20.78739        5.32455
C        -11.96472       22.04361        6.05350
C        -11.35336       22.01730        7.24632
C        -10.76628       20.73960        7.55567
S        -11.05611       19.57478        6.29689
C        -10.07178       20.45141        8.65896
H          0.21731        2.31951       -0.79832
H          0.14052       -2.67993       -1.14186
H          4.33142        0.14111       -2.90880
H          2.72724        2.08841       -2.18770
H         -5.08961       -0.56915        0.18121
H         -7.59722       10.63337        0.87086
H        -11.78599       10.93862       -1.79792
H        -10.98568        8.77941       -1.09503
H         -9.70383       13.31305        2.32537
H         -8.58619       14.65170        2.17557
H         -7.76752       11.78402        2.81636
H         -7.94021       13.12873        3.93745
H         -6.68306       13.19086        2.73340
H         -7.11489       14.84421       -0.04377
H         -7.40921       13.69671       -1.33087
H         -5.58969       13.34508        1.06277
H         -5.22595       13.29634       -0.64234
H         -6.09822       11.95691        0.07832
H         -9.52525       16.16169        0.62517
H        -12.59452       15.67758       -2.38768
H        -12.06214       13.27527       -2.56947
H        -11.09909       18.20604       -1.15014
H        -13.01010       16.94503        0.93468
H        -13.38007       19.61034       -0.26734
H        -13.78411       21.67003        1.22635
H        -13.28506       22.53380        3.54691
H        -12.44933       22.92844        5.66725
H        -11.29299       22.86394        7.91589
H         -9.89443       21.19223        9.43025
H         -9.65475       19.46145        8.81832
