125

C         -5.34558        9.59034       -4.40174
C         -4.08140        9.18425       -4.62854
C         -3.27048        9.76093       -5.64593
N         -2.62140       10.21990       -6.48540
C         -3.42873        8.22281       -3.82813
N         -2.90118        7.42547       -3.16952
C         -6.03760       10.71243       -5.07015
C         -7.05525       11.17328       -4.22815
C         -7.94987       12.18322       -4.54358
C         -7.90828       12.68451       -5.85688
C         -6.91603       12.21820       -6.73561
C         -5.94190       11.26213       -6.35792
S         -7.10365       12.92769       -8.30171
C         -8.49114       13.76557       -7.82787
C         -8.81090       13.58805       -6.51046
Br        -9.50819       14.81872       -8.99490
C         -7.20205       10.29141       -3.07208
O         -8.03046       10.43846       -2.19354
C         -6.23885        9.16006       -3.29988
C         -6.41092        7.96056       -2.71886
C         -7.32891        7.65629       -1.65814
C         -6.85368        7.78892       -0.36917
S         -8.01611        7.39535        0.78916
C         -9.19766        7.07428       -0.40558
C         -8.74604        7.25162       -1.71192
C         -9.70352        6.98970       -2.77253
C         -9.18909        6.87213       -4.21547
C         -9.96883        7.31960       -5.44868
C        -11.10396        6.68829       -2.41688
C        -12.14484        6.55456       -3.51008
C        -12.25919        5.14584       -4.06784
C        -11.50078        6.49009       -1.04216
C        -12.75971        6.12620       -0.36630
C        -12.58781        5.97139        0.99621
S        -11.01139        6.30440        1.50321
C        -10.50328        6.65807       -0.08879
C        -14.07374        5.95674       -0.93992
C        -15.03201        5.13850       -0.46744
C        -16.34314        5.08076       -1.01292
O        -17.41875        4.77333       -0.22074
C        -18.59409        4.78340       -0.94282
C        -18.23396        5.05363       -2.25535
C        -16.82935        5.28128       -2.29379
N        -19.11440        5.17188       -3.36896
O        -19.72985        4.15542       -3.71028
O        -19.13849        6.26897       -3.93739
C        -19.82306        4.60795       -0.24899
C        -20.94649        4.07448       -0.75640
C        -22.18285        3.92515       -0.03472
C        -22.50857        4.83738        0.94900
S        -24.06507        4.60982        1.55720
C        -24.34627        3.28890        0.51097
C        -23.24357        2.93824       -0.26759
C        -23.39312        1.75890       -1.08429
C        -22.23581        1.04456       -1.79789
C        -20.88156        0.94273       -1.10539
C        -24.73390        1.16509       -1.25843
C        -24.95664        0.15142       -2.38478
C        -24.75993       -1.30591       -1.98464
C        -25.82678        1.55958       -0.41017
C        -27.19993        1.09249       -0.21550
C        -27.86480        1.78279        0.77687
S        -26.90853        3.00059        1.46189
C        -25.57578        2.60805        0.46517
C        -27.84846       -0.02975       -0.82839
C        -28.60274        0.02142       -1.94006
C        -29.20181       -1.14880       -2.55577
C        -30.07720       -2.00863       -2.01235
C        -30.73415       -2.04847       -0.70348
C        -31.38058       -1.01089       -0.11736
C        -32.02084       -1.10668        1.14988
N        -32.51349       -1.18535        2.19649
C        -31.63950        0.18415       -0.85435
N        -31.92748        1.10485       -1.49850
C        -31.05469       -3.47588       -0.42189
C        -30.98846       -4.16163       -1.64124
C        -30.39358       -3.30620       -2.69008
O        -30.17788       -3.61834       -3.84148
C        -31.45762       -5.45630       -1.81706
C        -32.02597       -6.10447       -0.69566
C        -32.00838       -5.44951        0.54721
C        -31.49541       -4.13954        0.71484
S        -32.71890       -6.43244        1.77855
C        -33.10555       -7.64793        0.67418
C        -32.67820       -7.38227       -0.59910
Br       -34.03195       -9.20539        1.14827
H         -8.72387       12.47231       -3.84110
H         -5.22714       10.91130       -7.09101
H         -9.67227       14.03293       -6.02638
H         -5.76864        7.12689       -3.00273
H         -5.87100        8.10972       -0.04868
H         -8.91581        5.81863       -4.35622
H         -8.25917        7.43324       -4.28858
H        -10.75262        6.60955       -5.72573
H         -9.30494        7.34669       -6.31950
H        -10.39857        8.31800       -5.32528
H        -11.98789        7.30322       -4.28125
H        -13.11887        6.87745       -3.15752
H        -11.28347        4.72297       -4.32583
H        -12.87636        5.15290       -4.97225
H        -12.73164        4.47167       -3.34646
H        -13.32413        5.70211        1.74109
H        -14.33998        6.60404       -1.76442
H        -14.85613        4.52130        0.40889
H        -16.24552        5.54582       -3.16515
H        -19.79558        4.92141        0.79402
H        -20.97534        3.71603       -1.77770
H        -21.92284        5.66576        1.32281
H        -22.13165        1.42130       -2.82058
H        -22.51444       -0.00609       -1.88106
H        -20.21157        1.74477       -1.41148
H        -20.37403        0.02166       -1.41805
H        -20.96623        0.92670       -0.01563
H        -24.32135        0.39276       -3.24651
H        -25.96842        0.28416       -2.78055
H        -23.72700       -1.62845       -2.14938
H        -25.38120       -1.95585       -2.60942
H        -25.00377       -1.48915       -0.93491
H        -28.86562        1.62888        1.15568
H        -27.71153       -0.97978       -0.31622
H        -28.71507        0.95984       -2.48446
H        -28.84932       -1.33543       -3.57249
H        -31.43227       -5.92838       -2.79543
H        -31.52001       -3.68117        1.69791
H        -32.83502       -8.04806       -1.43938
