92

C         -9.11654        6.23281       -5.50084
C         -8.64490        5.64082       -6.62836
C         -9.17329        5.91477       -7.92321
N         -9.59529        6.17104       -8.97392
C         -7.51958        4.78430       -6.60198
N         -6.61037        4.06707       -6.58079
C        -10.22354        7.23025       -5.48758
C        -10.02474        8.08091       -4.40716
C        -10.85193        9.15882       -4.12673
C        -11.96314        9.38718       -4.97416
C        -12.19642        8.49797       -6.03562
C        -11.34554        7.39610       -6.30082
S        -13.61188        8.94577       -6.92251
C        -13.87673       10.29411       -5.94225
C        -12.95666       10.42431       -4.93690
Br       -15.29143       11.49443       -6.20548
C         -8.86505        7.64201       -3.61260
O         -8.34866        8.29399       -2.72749
C         -8.46409        6.29542       -4.15827
C         -7.76630        5.34278       -3.49949
C         -7.15481        5.29982       -2.12558
C         -5.98168        4.54654       -1.82542
C         -5.55907        4.45934       -0.48436
C         -6.18321        5.13613        0.54973
C         -7.33595        5.89192        0.26517
C         -7.81003        5.92727       -1.04671
N         -7.98504        6.55677        1.24583
C         -7.45708        6.47673        2.48771
C         -6.32676        5.73696        2.75936
N         -5.67825        5.04754        1.79883
C         -5.21443        3.81516       -2.86340
C         -3.91078        3.45663       -2.94039
C         -2.82835        3.66098       -1.91646
C         -3.42648        2.80476       -4.21736
N         -2.97200        3.86862       -5.10102
C         -3.02169        3.87057       -6.47646
C         -3.43059        2.86495       -7.25382
C         -3.49706        2.84398       -8.70364
C         -4.01613        1.81745       -9.39855
C         -4.16757        1.71693      -10.83348
C         -5.00918        0.73547      -11.21335
C         -5.61074        0.03892      -10.08683
S         -4.69503        0.40576       -8.63585
C         -6.71991       -0.72264      -10.04724
C         -7.54335       -1.17439      -11.14904
C         -8.61371       -1.89358      -10.76721
C         -8.74684       -2.03196       -9.33075
S         -7.43135       -1.24277       -8.51513
C         -9.74799       -2.64832       -8.67988
C         -9.91010       -2.59848       -7.21308
C         -9.28632       -3.46223       -6.26311
O         -8.49054       -4.43596       -6.83774
C         -8.41417       -5.70588       -6.20166
C         -9.41205       -3.25681       -4.84736
O         -8.70827       -4.08646       -4.00530
C         -9.31636       -4.41747       -2.75792
C        -10.12738       -2.17352       -4.29439
C        -10.79254       -1.32010       -5.19970
C        -10.69758       -1.53200       -6.68405
N        -11.40242       -0.61657       -7.37678
S        -12.09273        0.40322       -6.26920
N        -11.54135       -0.26101       -4.85349
H        -10.64839        9.80262       -3.27504
H        -11.59176        6.72823       -7.12308
H        -12.97061       11.22306       -4.20587
H         -7.65191        4.38700       -4.00466
H         -4.71213        3.84082       -0.20484
H         -8.73223        6.47966       -1.20148
H         -7.97392        7.02916        3.26371
H         -5.90854        5.67608        3.75758
H         -5.81091        3.53953       -3.73079
H         -2.90816        4.62854       -1.41555
H         -1.83477        3.63329       -2.37880
H         -2.85380        2.85456       -1.17472
H         -4.24157        2.22038       -4.66111
H         -2.60968        2.10080       -4.02077
H         -2.84575        4.77969       -4.66940
H         -2.69540        4.81319       -6.90824
H         -3.77510        1.97071       -6.74538
H         -3.13712        3.72602       -9.22414
H         -3.66173        2.38627      -11.51528
H         -5.26308        0.52892      -12.24278
H         -7.29863       -0.97062      -12.18220
H         -9.33075       -2.31552      -11.45765
H        -10.55526       -3.12840       -9.22195
H         -9.40901       -6.13768       -6.05301
H         -7.84329       -5.68138       -5.27166
H         -7.85424       -6.37176       -6.86643
H        -10.37198       -4.13784       -2.67898
H         -8.74447       -3.95411       -1.94848
H         -9.26057       -5.50385       -2.63847
H        -10.15939       -1.96300       -3.23332
