94

C        -11.07914       -2.86672       -0.82430
C        -11.07115       -3.80726        0.15018
C        -12.01350       -4.86935        0.20066
N        -12.78650       -5.73689        0.24746
C        -10.08568       -3.86364        1.17868
N         -9.29861       -3.92547        2.03048
C        -11.98025       -2.82435       -2.01548
C        -11.44192       -1.93457       -2.94903
C        -11.99231       -1.68827       -4.20188
C        -13.14572       -2.41799       -4.56363
C        -13.71027       -3.29271       -3.62310
C        -13.16361       -3.48208       -2.32886
S        -15.10032       -4.08964       -4.26953
C        -14.89948       -3.35221       -5.77352
C        -13.87443       -2.44490       -5.80194
Br       -15.96636       -3.75281       -7.25957
C        -10.22511       -1.30332       -2.42314
O         -9.48634       -0.56672       -3.04189
C        -10.09810       -1.77806       -1.00608
C         -9.34072       -1.14044       -0.09917
C         -8.41983        0.04159       -0.35280
C         -9.16048        1.35949       -0.18221
N        -10.45910        1.50114       -0.48342
S        -10.82729        3.08755       -0.09371
N         -9.34531        3.60371        0.47790
C         -8.53079        2.55237        0.34124
C         -7.06573        2.61896        0.72798
C         -6.62161        1.22768        1.12609
C         -7.22617        0.02432        0.59459
N         -6.66609       -1.11506        1.01796
S         -5.52501       -0.64414        2.14995
N         -5.66881        1.02252        2.04186
C         -6.24927        3.13741       -0.45687
C         -5.96160        4.42308       -0.69867
C         -5.33358        4.94059       -1.89498
C         -5.47335        6.27239       -2.03392
C         -6.22335        6.89128       -0.95264
S         -6.42662        5.72107        0.35405
C         -6.78166        8.11708       -0.91120
C         -6.76516        9.15044       -1.92979
C         -7.58980       10.18259       -1.67329
C         -8.34032       10.03061       -0.44422
S         -7.77697        8.64886        0.44545
C         -9.38273       10.78391       -0.05200
C        -10.26955       10.48586        1.15562
C        -11.46220        9.63955        0.73550
N        -11.33937        8.33279        0.47953
S        -12.87460        7.80360        0.09715
N        -13.72706        9.23924        0.25006
C        -12.80742       10.15084        0.59430
C        -13.17321       11.60676        0.78993
C        -12.12471       12.25358        1.67311
C        -10.77744       11.74565        1.83037
N        -10.02210       12.43024        2.69661
S        -11.00988       13.66060        3.26223
N        -12.40676       13.34366        2.39428
C        -13.25035       12.30845       -0.55657
C        -14.03877       12.05845       -1.61744
C        -15.14811       11.13173       -1.89420
C        -16.17256       10.81124       -1.06700
C        -17.15537        9.83087       -1.37321
N        -17.94824        9.01451       -1.60834
C        -16.40045       11.51324        0.15108
N        -16.62167       12.11952        1.11504
C        -15.10031       10.83176       -3.36020
C        -14.19246       11.71436       -3.95513
C        -13.51751       12.53639       -2.94079
O        -12.64851       13.35781       -3.14935
C        -13.97304       11.80404       -5.32456
C        -14.75805       10.98719       -6.16661
C        -15.65706       10.08351       -5.58026
C        -15.82016        9.96713       -4.17632
S        -16.52074        9.19589       -6.78596
C        -15.75604       10.02941       -8.03788
C        -14.82187       10.92974       -7.60095
Br       -16.15573        9.75326       -9.84669
H        -11.52506       -0.98403       -4.88492
H        -13.67224       -4.15395       -1.64775
H        -13.61143       -1.85783       -6.67364
H         -9.38301       -1.42789        0.94740
H         -7.99258        0.00928       -1.36100
H         -6.95823        3.26545        1.60824
H         -5.95068        2.39390       -1.19356
H         -4.84666        4.30436       -2.62084
H         -5.09966        6.82268       -2.88715
H         -6.16370        9.07956       -2.82616
H         -7.72743       11.02378       -2.33862
H         -9.66883       11.63620       -0.66461
H         -9.72126        9.92814        1.92551
H        -14.11828       11.67309        1.32948
H        -12.44957       13.03896       -0.70827
H        -13.25396       12.51251       -5.72671
H        -16.53202        9.24285       -3.79899
H        -14.22695       11.55084       -8.25988
