96

C         -5.21452        2.30677        2.80573
C         -6.14932        1.92954        3.71724
C         -5.87651        1.84443        5.10611
N         -5.65141        1.77611        6.24910
C         -7.49437        1.65605        3.33747
N         -8.58865        1.43243        3.02387
C         -3.80910        2.75673        3.09600
C         -3.33228        3.41265        1.95988
C         -2.04463        3.90479        1.79674
C         -1.17350        3.79873        2.89571
C         -1.64992        3.20898        4.07804
C         -2.95662        2.65315        4.18957
S         -0.44767        3.28121        5.32019
C          0.65997        4.04471        4.29909
C          0.18910        4.23056        3.02838
Br         2.36223        4.59754        4.85198
C         -4.40429        3.56124        0.98488
O         -4.48601        4.50963        0.22845
C         -5.43078        2.52279        1.35464
C         -6.17118        1.82226        0.46102
C         -6.02786        1.99836       -0.94937
O         -5.06396        2.82000       -1.48338
C         -6.65733        1.49008       -2.05607
C         -7.72652        0.62283       -2.44138
O         -8.48499        0.00860       -1.71453
N         -7.72777        0.67926       -3.82161
C         -6.80742        1.56098       -4.35908
O         -6.62865        1.82218       -5.53426
C         -6.10677        2.07675       -3.22577
C         -5.22029        3.04032       -2.83484
C         -4.61601        4.20698       -3.35767
C         -4.22525        4.52072       -4.60321
C         -3.76946        5.85633       -4.99024
C         -3.81090        6.85907       -4.03175
S         -3.22053        8.33781       -4.54937
C         -2.86157        7.71728       -6.09931
C         -3.25852        6.38938       -6.28566
C         -3.06472        5.89346       -7.62794
C         -3.55402        4.49987       -8.08504
C         -4.89293        3.90857       -7.65080
C         -2.26293        6.71659       -8.64139
C         -2.01675        6.02820       -9.99840
C         -0.72306        6.16956      -10.77291
C         -1.86901        8.08959       -8.34790
C         -1.15227        9.21857       -9.02140
C         -1.07435       10.34706       -8.22718
S         -1.80292       10.15060       -6.73258
C         -2.22678        8.52263       -7.06905
C         -0.51306        9.32868      -10.31404
C          0.76767        9.72749      -10.45879
C          1.58761        9.71110      -11.66498
C          2.78886        9.10295      -11.70519
C          3.77340        9.17767      -12.76395
C          4.94724        8.59418      -12.45681
C          4.97873        7.98352      -11.13806
S          3.38221        8.09706      -10.40301
C          6.03495        7.44442      -10.49390
C          7.40650        7.35014      -10.95343
C          8.26660        6.90313      -10.02090
C          7.64255        6.60179       -8.74543
S          5.91963        6.79218       -8.85836
C          8.33020        6.28414       -7.63053
C          7.73473        6.04147       -6.35261
S          8.65625        6.39134       -4.92035
C          7.32474        5.94748       -3.93973
C          6.28486        5.53228       -4.73677
N          6.53176        5.55789       -6.09325
H         -1.74068        4.36901        0.86252
H         -3.24589        2.19096        5.12617
H          0.76042        4.68910        2.22942
H         -6.84709        1.03529        0.77827
H         -8.39141        0.17636       -4.38565
H         -4.50810        4.94081       -2.56233
H         -4.24851        3.73582       -5.34042
H         -4.15317        6.82854       -3.00877
H         -2.74787        3.78690       -7.87236
H         -3.69659        4.52359       -9.16734
H         -5.49086        4.55954       -7.01298
H         -4.72320        2.94008       -7.16368
H         -5.50675        3.66394       -8.52632
H         -2.87482        6.25709      -10.64199
H         -2.00622        4.94717       -9.83905
H         -0.46522        7.17812      -11.02453
H         -0.82382        5.65397      -11.73513
H          0.11862        5.73098      -10.23223
H         -0.60380       11.29386       -8.45843
H         -1.09400        9.04660      -11.18749
H          1.33014       10.01644       -9.56785
H          1.24558       10.31284      -12.50371
H          3.59024        9.69793      -13.69476
H          5.80232        8.59397      -13.12175
H          7.71661        7.63501      -11.94953
H          9.32872        6.79429      -10.18653
H          9.41170        6.24996       -7.67609
H          7.36193        6.00733       -2.86185
H          5.31760        5.19547       -4.38379
