93

C         -2.71481       -1.38592        1.56119
C         -3.15242       -2.54512        2.10904
C         -2.35434       -3.72414        2.16823
N         -1.71035       -4.68491        2.21824
C         -4.42978       -2.65552        2.73264
N         -5.47022       -2.74033        3.23935
C         -1.34789       -1.11846        1.01761
C         -1.16610        0.26570        0.95093
C         -0.01600        0.87699        0.46534
C          1.02172        0.04381       -0.00821
C          0.84931       -1.34608        0.05066
C         -0.33064       -1.94989        0.55961
S          2.23104       -2.17067       -0.57741
C          3.03358       -0.71274       -0.94268
C          2.28611        0.38727       -0.59549
C         -2.38141        0.97409        1.38119
O         -2.47402        2.16865        1.57050
C         -3.43068       -0.08858        1.53807
C         -4.74742        0.16529        1.43232
C         -5.34191        1.48752        1.21774
C         -5.77520        2.32503        2.24966
C         -6.39476        3.58225        2.01368
C         -6.60276        4.18819        0.73745
C         -6.11867        3.37227       -0.34675
C         -5.52734        1.98219       -0.10055
N         -5.23071        1.32244       -1.23605
S         -5.59775        2.34065       -2.48585
N         -6.07390        3.68899       -1.65557
C         -7.22526        5.53808        0.55071
C         -8.05625        5.91463       -0.54780
C         -8.51608        7.26755       -0.77372
N         -9.19615        7.58860       -1.90042
C         -9.45425        6.61422       -2.80803
C         -9.07078        5.31904       -2.57699
N         -8.42627        4.96763       -1.43433
C         -9.25192        4.26758       -3.53278
N         -9.39010        3.43008       -4.32521
C        -10.12726        7.02906       -4.00524
N        -10.67079        7.34033       -4.98289
C         -8.27190        8.29854        0.14354
C         -7.54726        7.97109        1.31100
C         -6.99995        6.58138        1.51175
N         -6.29750        6.49287        2.65643
S         -6.40057        7.94498        3.43607
N         -7.25943        8.80802        2.32291
C         -8.71548        9.69309       -0.04086
C         -9.93760       10.15187        0.25728
C        -10.41773       11.47886       -0.06350
C        -11.75470       11.58399        0.00049
C        -12.40334       10.33735        0.37317
S        -11.19725        9.20491        0.99209
C        -13.67496        9.98136        0.11542
C        -14.66764       10.75287       -0.61127
C        -15.62606        9.98825       -1.16248
C        -15.43982        8.57637       -0.89731
S        -14.28668        8.35417        0.39184
C        -16.00120        7.57636       -1.59351
C        -15.66038        6.17457       -1.46578
C        -16.54527        5.19994       -1.14920
C        -15.79237        3.96842       -1.07424
C        -16.18308        2.72612       -0.73940
C        -15.14509        1.71652       -0.71601
C        -15.19784        0.41463       -0.38144
C        -13.85753       -0.18586       -0.49592
C        -12.99629        0.75330       -0.95322
C        -13.74393        1.98355       -1.07581
C        -13.35525        3.22403       -1.42389
C        -14.38847        4.24501       -1.40763
C        -14.32547        5.56535       -1.64450
C        -13.48083       -1.55716       -0.24794
C        -14.07093       -2.34108        0.66390
H          0.06004        1.95978        0.42130
H         -0.40640       -3.03135        0.54454
H          4.01494       -0.72841       -1.39764
H          2.62438        1.40388       -0.75793
H         -5.48233       -0.63307        1.38805
H         -5.63875        2.00731        3.28380
H         -6.71742        4.11250        2.91161
H         -7.98545       10.33943       -0.52199
H         -9.76353       12.27910       -0.38349
H        -12.29718       12.48051       -0.26338
H        -14.59707       11.82054       -0.76323
H        -16.41030       10.36576       -1.80353
H        -16.71189        7.80329       -2.38364
H        -17.59547        5.31126       -0.93629
H        -17.20338        2.47570       -0.47475
H        -16.07499       -0.13007       -0.07114
H        -11.94548        0.63471       -1.16134
H        -12.33585        3.46971       -1.68530
H        -13.44582        6.13075       -1.90876
H        -12.65608       -1.95686       -0.83410
H        -14.87718       -1.98422        1.29717
H        -13.73926       -3.36359        0.81296
