96

C         -0.95254        1.83956        4.11669
C          0.36008        1.71920        3.80584
C          1.32963        1.24766        4.73698
N          2.11565        0.86718        5.49773
C          0.85848        2.00695        2.50187
N          1.25727        2.25994        1.44017
C         -1.60892        1.45989        5.40268
C         -2.98039        1.31150        5.17057
C         -3.90819        1.00725        6.15850
C         -3.43454        0.87515        7.48250
C         -2.06153        1.03677        7.72843
C         -1.12809        1.32791        6.70046
S         -1.70757        0.85341        9.41080
C         -3.33011        0.58674        9.78983
C         -4.15629        0.62089        8.69896
Br        -3.93930        0.28143       11.53461
C         -3.31238        1.65770        3.77977
O         -4.39779        1.54162        3.24931
C         -2.04815        2.22424        3.20397
C         -2.04929        3.12512        2.20782
C         -3.25692        3.61553        1.52513
C         -3.80985        3.02335        0.38679
C         -4.96649        3.57328       -0.27148
N         -5.43391        2.93318       -1.36784
C         -4.80590        1.82465       -1.83327
C         -3.70828        1.31696       -1.19243
N         -3.20045        1.91301       -0.08655
C         -3.03627        0.13515       -1.62966
N         -2.51173       -0.83624       -1.99006
C         -5.34916        1.25316       -3.02880
N         -5.76790        0.78309       -4.00447
C         -5.62220        4.75744        0.18054
C         -5.10026        5.35641        1.36784
C         -3.88794        4.77402        2.04484
N         -3.49967        5.46397        3.13231
S         -4.56513        6.71682        3.30922
N         -5.55103        6.45152        2.00677
C         -6.77996        5.38899       -0.51176
S         -6.87266        5.32516       -2.26359
C         -8.36069        6.04037       -2.25660
C         -8.80511        6.43720       -1.01839
C         -7.87915        6.09377       -0.00027
C        -10.13718        7.04091       -1.15121
O        -10.84776        7.50156       -0.27379
C        -10.43137        6.89145       -2.58209
C         -9.35691        6.31444       -3.21683
S         -9.57254        6.00573       -4.83228
C        -11.22319        6.57402       -4.74689
C        -11.51311        7.07702       -3.47202
C        -12.06376        6.33951       -5.87899
C        -13.08799        7.11101       -6.26848
C        -14.08070        6.67985       -7.23009
C        -15.20860        7.40576       -7.18215
C        -15.15259        8.48988       -6.21684
S        -13.49394        8.68408       -5.64868
C        -16.18826        9.17795       -5.70273
C        -17.59915        8.93601       -5.93625
C        -18.40434        9.55879       -5.05941
C        -17.69065       10.36325       -4.09100
S        -15.99429       10.43964       -4.49691
C        -18.23367       10.96415       -3.01895
C        -17.48958       11.74118       -2.04902
C        -17.72913       13.04849       -1.78479
C        -16.66822       13.49261       -0.91077
C        -16.37731       14.71746       -0.43707
C        -15.16165       14.82563        0.34494
C        -14.56855       15.89748        0.90158
C        -13.31761       15.48897        1.56449
C        -13.17487       14.14872        1.44131
C        -14.29214       13.68057        0.65668
C        -14.59281       12.45254        0.19877
C        -15.78959       12.35357       -0.61413
C        -16.30684       11.31050       -1.27854
C        -12.39754       16.32352        2.29851
C        -12.16373       17.60914        2.00515
H         -4.96556        0.92496        5.92164
H         -0.08780        1.48064        6.96646
H         -5.22960        0.48118        8.74955
H         -1.14845        3.65014        1.90515
H         -8.03633        6.29896        1.05235
H        -12.48464        7.45421       -3.17364
H        -11.90982        5.39287       -6.39380
H        -13.95185        5.80611       -7.85423
H        -16.08327        7.18789       -7.77740
H        -17.96365        8.26528       -6.70066
H        -19.48031        9.45507       -5.04908
H        -19.29993       10.87671       -2.82897
H        -18.48951       13.67933       -2.21379
H        -16.97353       15.59319       -0.65289
H        -14.92648       16.91410        0.87408
H        -12.37555       13.53116        1.81683
H        -13.97485       11.58297        0.37996
H        -15.89827       10.31242       -1.32087
H        -11.86522       15.86209        3.12739
H        -12.64834       18.10634        1.17050
H        -11.45836       18.19184        2.58808
