90

C        -10.74435       -0.85366       -3.07263
C        -11.41380       -1.70946       -2.25632
C        -12.03827       -2.89966       -2.72756
N        -12.55502       -3.86949       -3.10079
C        -11.58913       -1.49567       -0.86113
N        -11.73997       -1.33485        0.28211
C        -10.56894       -0.99045       -4.56027
C         -9.95673        0.16854       -5.04960
C         -9.67322        0.40271       -6.39149
C        -10.00023       -0.60809       -7.31969
C        -10.58342       -1.79144       -6.84369
C        -10.87588       -2.00137       -5.46850
S        -10.87162       -2.90218       -8.13819
C        -10.24951       -1.83021       -9.28411
C         -9.82376       -0.64618       -8.74521
Br       -10.14636       -2.22478      -11.11253
C         -9.62760        1.08910       -3.95707
O         -9.04879        2.15304       -4.06563
C        -10.11023        0.43331       -2.70309
C         -9.90919        1.03442       -1.52351
N         -9.32661        2.25925       -1.25083
C         -9.19486        2.88944       -0.04106
S         -9.67534        2.13035        1.44361
C         -9.22043        3.45877        2.36016
N         -9.42489        3.41210        3.76970
O         -8.42192        3.56426        4.47738
O        -10.58659        3.25467        4.16592
C         -8.65790        4.47100        1.62697
C         -8.67279        4.16168        0.22056
C         -8.16654        5.08877       -0.76173
C         -8.67323        5.28203       -1.99005
C         -8.11276        6.17385       -2.98211
C         -8.77585        6.64064       -4.06136
C        -10.24640        6.42884       -4.32435
C         -8.07907        7.49129       -5.09822
N         -7.67165        6.62470       -6.18453
C         -7.47628        7.00296       -7.48845
C         -7.02729        6.23175       -8.48862
C         -6.96789        6.73824       -9.81418
S         -8.29951        6.53227      -10.85984
C         -7.57233        7.44769      -12.13653
C         -6.26538        7.79939      -11.82130
C         -5.94532        7.39453      -10.46542
C         -5.30263        8.54229      -12.65820
O         -4.44438        9.23265      -12.09251
C         -5.30593        8.42553      -14.18209
F         -6.16548        7.50880      -14.69676
F         -5.59762        9.61279      -14.78505
F         -4.07847        8.05649      -14.65577
C         -8.41336        7.72602      -13.24738
C         -9.09961        8.89182      -13.32269
C        -10.09027        8.70490      -14.35613
C        -11.11765        9.49046      -14.72314
C        -12.05005        8.91189      -15.66814
C        -13.23858        9.36394      -16.10725
C        -13.85795        8.35574      -16.98080
C        -13.01131        7.31019      -17.12427
C        -11.86919        7.58719      -16.28407
C        -10.80905        6.82468      -15.95949
C         -9.92699        7.36577      -14.94134
C         -8.90273        6.80140      -14.28331
C        -15.17630        8.40127      -17.55899
C        -16.28054        8.57298      -16.82074
H         -9.20904        1.33306       -6.70788
H        -11.32001       -2.94795       -5.18437
H         -9.39546        0.16257       -9.32552
H        -10.22673        0.54839       -0.61342
H         -8.98898        2.73121       -2.09710
H         -8.29439        5.39537        2.06150
H         -7.33339        5.71569       -0.44502
H         -9.54965        4.72140       -2.30036
H         -7.05760        6.42146       -2.86255
H        -10.78173        5.99266       -3.47684
H        -10.39300        5.77690       -5.19021
H        -10.73314        7.38992       -4.52367
H         -7.20186        7.99427       -4.67590
H         -8.75567        8.27727       -5.45481
H         -7.40999        5.67534       -5.93121
H         -7.75975        8.03835       -7.67813
H         -6.75213        5.19676       -8.31529
H         -4.99046        7.60100       -9.99128
H         -9.05997        9.72802      -12.64331
H        -11.30829       10.46127      -14.28626
H        -13.71233       10.29487      -15.83856
H        -13.18648        6.39649      -17.66763
H        -10.65192        5.83013      -16.35556
H         -8.51179        5.80633      -14.42812
H        -15.25483        8.27123      -18.63495
H        -16.23456        8.67483      -15.73970
H        -17.26251        8.59058      -17.28146
