101

C         -6.59074       -1.14104        9.38616
O         -6.01058       -1.07674        8.32454
C         -6.02608       -0.80873       10.70001
C         -7.05574       -0.66704       11.64928
C         -6.70835       -0.46977       12.97753
C         -5.34624       -0.41803       13.32027
C         -4.34652       -0.56480       12.34359
C         -4.67722       -0.75543       11.00805
Br        -2.52793       -0.56043       12.85950
C         -8.35854       -0.87425       10.95341
C         -9.57708       -0.43515       11.34292
C         -9.77745        0.26134       12.56503
N         -9.92801        0.83162       13.56481
C        -10.73726       -0.59156       10.51535
N        -11.66370       -0.74420        9.84782
C         -8.02307       -1.49951        9.66236
C         -8.69531       -2.45715        9.00140
C         -8.07681       -3.20998        7.97474
S         -7.23594       -4.66770        8.36777
C         -6.65842       -4.88750        6.76164
C         -7.18336       -3.93981        5.92973
C         -7.97929       -3.03904        6.63429
C         -8.49579       -2.07811        5.73096
C         -8.10629       -2.31393        4.40173
C         -8.42293       -1.53932        3.22058
O         -8.43490       -1.94802        2.06577
O         -8.59631       -0.23678        3.58236
C         -8.40715        0.68649        2.51327
S         -7.03788       -3.68190        4.15563
C         -5.77428       -5.94407        6.39408
N         -5.78960       -7.14420        7.06610
C         -4.83837       -7.94398        6.51575
C         -4.26342       -9.22478        6.63359
C         -3.28069       -9.25488        5.65927
N         -3.27755       -8.06643        4.96639
C         -4.23524       -7.26816        5.51132
C         -4.80917       -5.98603        5.39979
C         -2.32839      -10.20925        5.25052
C         -2.17992      -11.36125        5.91247
C         -1.28325      -12.37675        5.48098
S         -1.78339      -13.97593        5.82078
C         -0.07072      -12.37426        4.80251
C          0.70154      -11.18202        4.41303
O          0.53666      -10.04922        4.84694
C          1.73103      -11.49073        3.44206
C          2.47958      -10.60197        2.70104
N          3.32600      -11.32980        1.90781
C          4.23254      -10.73985        0.93639
C          5.51800      -11.52533        0.75814
C          3.15075      -12.66921        2.15663
C          2.13702      -12.80440        3.08152
C          1.54911      -14.02068        3.62159
O          1.96623      -15.14331        3.36131
C          0.36520      -13.73438        4.45937
C         -0.45692      -14.69840        5.02316
C         -0.35510      -16.11613        4.95729
C         -0.81770      -16.92718        5.92303
C         -0.67393      -18.36447        5.91483
C         -0.73419      -19.17973        4.85361
C         -0.07316      -20.51434        4.96843
O          0.09648      -21.18655        5.96210
C          0.43628      -20.79184        3.61117
C          0.01142      -19.79770        2.71017
C         -0.94911      -18.92315        3.42675
C         -1.97886      -18.23377        2.87933
C         -3.04283      -17.71838        3.67879
N         -3.93614      -17.33766        4.31538
C         -2.12824      -18.06936        1.47370
N         -2.22498      -17.92801        0.32634
C          0.51904      -19.79558        1.42082
C          1.38477      -20.83355        1.03181
C          1.75017      -21.85109        1.93928
C          1.28591      -21.82273        3.25574
Br         2.88103      -23.30029        1.46345
Br         2.01687      -20.78487       -0.76125
H         -7.44355       -0.39312       13.77252
H         -5.06851       -0.28497       14.36505
H         -3.92606       -0.90645       10.23880
H         -9.66860       -2.80798        9.32980
H         -9.13811       -1.25256        6.01158
H         -8.86573        1.63573        2.79849
H         -8.85794        0.34983        1.57504
H         -7.33203        0.84552        2.38176
H         -6.38369       -7.41375        7.83856
H         -4.52611      -10.00394        7.33483
H         -2.67778       -7.78663        4.20056
H         -4.53870       -5.20792        4.69997
H         -1.73038       -9.97812        4.37722
H         -2.82808      -11.58807        6.75712
H          2.45702       -9.51853        2.67527
H          4.46289       -9.72228        1.27517
H          3.67984      -10.66829       -0.00692
H          6.05489      -11.60741        1.70902
H          6.16807      -11.04076        0.02607
H          5.31369      -12.53836        0.39765
H          3.73879      -13.42779        1.65641
H          0.14862      -16.52469        4.08643
H         -1.24262      -16.52168        6.84022
H         -0.40540      -18.77764        6.88902
H          0.27514      -19.01014        0.71117
H          1.57921      -22.56697        3.99040
