97

C         -8.10102       -4.26288       -2.11794
O         -8.12225       -4.51723       -0.93287
C         -9.10567       -4.70447       -3.09155
C         -8.91931       -4.05788       -4.32479
C         -9.73339       -4.42549       -5.38912
C        -10.71295       -5.41306       -5.19150
C        -10.86996       -6.03276       -3.94260
C        -10.06421       -5.68005       -2.86804
Br       -12.16557       -7.39168       -3.72937
C         -7.77852       -3.10526       -4.18250
C         -7.52146       -2.04857       -4.98868
C         -8.28706       -1.75241       -6.14173
N         -8.92300       -1.51245       -7.10317
C         -6.49135       -1.10836       -4.70121
N         -5.64775       -0.34667       -4.46844
C         -7.11254       -3.44292       -2.90080
C         -5.82940       -3.28280       -2.52822
C         -5.30338       -3.82479       -1.32213
S         -4.59153       -5.40493       -1.28259
C         -4.28569       -5.36353        0.42309
C         -4.68018       -4.14047        0.93189
C         -5.22850       -3.32699       -0.06327
C         -5.68715       -2.11611        0.51470
C         -5.38796       -2.00157        1.88358
C         -5.64470       -0.84933        2.73423
O         -4.97828       -0.47945        3.69784
O         -6.73952       -0.20291        2.25767
C         -6.90379        1.11222        2.77629
S         -4.68752       -3.41835        2.61267
C         -3.83754       -6.52270        1.14262
C         -2.93580       -6.51453        2.13947
C         -2.63268       -7.58428        3.07388
C         -1.81138       -7.21332        4.08113
C         -1.35769       -5.83318        3.97844
S         -1.88553       -5.17612        2.43377
C         -0.64918       -5.05334        4.82061
C         -0.04617       -5.34744        6.10725
C          0.34517       -4.24407        6.77596
C          0.00651       -3.00860        6.09002
S         -0.36830       -3.33731        4.43849
C         -0.10643       -1.79513        6.65445
C         -0.66252       -0.65192        5.99159
S          0.32889        0.42226        5.09738
C         -0.94661        1.56880        4.84388
C         -2.08049        1.16217        5.53244
C         -1.97595       -0.20736        5.97120
C         -3.19598       -0.93125        6.45404
C         -3.80849       -0.24327        7.64761
S         -4.13028        1.49712        7.36099
O         -3.46994        2.22013        8.43668
O         -5.56366        1.65244        7.17521
C         -3.32474        1.95729        5.80125
C         -0.64102        2.71782        4.05100
C         -1.54602        3.38001        3.30874
C         -1.17319        4.47734        2.43137
C         -0.32475        4.41474        1.39252
C          0.24460        5.68689        0.83639
O         -0.20025        6.81060        0.93332
C          1.52461        5.29901        0.21135
C          1.69374        3.90163        0.26752
C          0.42964        3.30841        0.78757
C         -0.05098        2.07836        0.47866
C          0.72906        1.09982       -0.20136
N          1.37750        0.31506       -0.75823
C         -1.42409        1.73277        0.66907
N         -2.55161        1.47277        0.76543
C          2.90066        3.35798       -0.14947
C          3.88563        4.21202       -0.66973
C          3.66609        5.59602       -0.75851
C          2.47949        6.16227       -0.30307
Br         5.01043        6.70463       -1.49264
H         -9.63611       -4.00166       -6.38365
H        -11.34589       -5.70558       -6.02828
H        -10.14804       -6.15944       -1.89777
H         -5.10569       -2.78860       -3.16877
H         -6.20174       -1.32865       -0.02178
H         -7.62759        1.61434        2.13058
H         -5.96058        1.66596        2.72621
H         -7.29036        1.08802        3.79865
H         -4.29706       -7.46715        0.86187
H         -3.07192       -8.57012        2.98416
H         -1.52045       -7.87410        4.88761
H          0.09218       -6.35387        6.47813
H          0.82508       -4.25354        7.74388
H          0.11857       -1.67230        7.70599
H         -2.98433       -1.98150        6.67640
H         -3.93142       -0.94769        5.64770
H         -3.13443       -0.31339        8.50719
H         -4.75955       -0.71409        7.91733
H         -3.09437        3.02424        5.90529
H         -4.05840        1.82731        5.00219
H          0.40417        3.01938        3.99964
H         -2.60397        3.12622        3.31533
H         -1.59326        5.44446        2.71551
H          3.12032        2.29650       -0.08555
H          4.82878        3.78586       -1.00965
H          2.30244        7.23276       -0.33431
