100

C          3.51167       -8.30574        0.97568
O          2.35208       -8.63334        1.11204
C          4.60345       -8.71437        1.86862
C          5.83522       -8.22706        1.40616
C          6.96200       -8.43987        2.19304
C          6.83919       -9.16916        3.38664
C          5.59569       -9.66697        3.79937
C          4.45310       -9.43578        3.04368
Br         5.46897      -10.64617        5.41023
C          5.60828       -7.53687        0.10040
C          6.57112       -7.25331       -0.81096
C          7.95668       -7.51277       -0.59210
N          9.08512       -7.71611       -0.41602
C          6.27993       -6.72919       -2.10556
N          6.05482       -6.30139       -3.15434
C          4.13201       -7.41261       -0.06439
C          3.41394       -6.60944       -0.87100
C          1.96288       -6.46301       -0.97816
C          1.22325       -6.05290        0.06990
C         -0.19274       -5.81510       -0.03367
C         -0.95024       -6.08272       -1.26138
C         -0.39695       -6.48624       -2.40367
S          1.32014       -6.72072       -2.60109
C         -2.29668       -5.76292       -0.98205
C         -2.39805       -5.28855        0.30429
C         -3.70899       -4.93920        0.66944
C         -4.56995       -5.17096       -0.39555
S         -3.75509       -5.80133       -1.79543
C         -1.07680       -5.32834        0.88559
C         -0.76942       -4.87519        2.21838
C         -0.19135       -5.65409        3.14680
C          0.10205       -5.16615        4.45023
C         -0.54244       -4.17738        5.19518
C          0.03753       -4.01497        6.47086
C          1.13244       -4.83089        6.61916
S          1.43705       -5.84505        5.33929
C          1.70348       -4.58592        7.88207
C          0.96734       -3.62528        8.53864
C         -0.15249       -3.21444        7.69354
C         -1.18735       -2.38386        7.96752
C         -2.34175       -2.47510        6.98293
N         -3.29943       -2.55079        6.16613
C         -1.31683       -1.66799        9.17719
N         -1.37471       -1.09474       10.18369
C          1.46964       -3.40055        9.83563
C          2.59657       -4.19866       10.11439
S          3.00283       -5.17745        8.71620
C          3.38999       -4.27499       11.32138
C          3.48619       -3.15916       12.07180
C          4.19585       -3.11515       13.32289
C          4.98196       -4.26096       13.79764
C          5.04170       -5.44238       13.18696
S          4.14006       -5.81387       11.75032
C          5.60462       -3.85574       14.99146
C          5.23879       -2.56478       15.28585
C          5.81168       -2.09399       16.47969
C          6.60858       -3.08191       17.04504
S          6.63381       -4.54368       16.11111
C          4.34714       -2.10671       14.23685
C          3.81378       -0.75817       14.18577
C          2.61675       -0.41268       13.68810
C          2.11935        0.94404       13.64068
C          0.82168        1.28089       13.63419
C          0.42381        2.65205       13.18683
O          1.11277        3.64800       13.12760
C         -0.97819        2.52285       12.74958
C         -1.44967        1.21552       12.97912
C         -0.41018        0.49047       13.75700
C         -0.65781       -0.48568       14.66539
C         -1.90279       -1.17231       14.74455
N         -2.90910       -1.74811       14.79613
C          0.26748       -0.79058       15.70923
N          0.98674       -1.00212       16.59619
C         -2.71371        0.87157       12.52554
C         -3.50578        1.85827       11.92125
C         -3.02874        3.16965       11.76474
C         -1.74079        3.51508       12.15879
Br        -4.15820        4.48692       11.01616
H          7.94584       -8.05868        1.93904
H          7.72649       -9.34333        3.99415
H          3.47498       -9.78915        3.35462
H          3.91668       -5.93286       -1.55811
H          1.68301       -5.90235        1.04068
H         -1.01173       -6.65194       -3.28255
H         -4.02966       -4.55467        1.62913
H         -5.63920       -5.00857       -0.43236
H         -1.03443       -3.83976        2.42113
H          0.06941       -6.68424        2.90734
H         -1.39805       -3.64636        4.79955
H          1.03875       -2.72358       10.56283
H          3.03855       -2.23578       11.72903
H          5.65201       -6.24188       13.59529
H          5.66617       -1.11734       16.92198
H          7.17921       -3.03366       17.96249
H          4.43470        0.00452       14.65289
H          1.95902       -1.16939       13.26981
H          2.87003        1.72233       13.48839
H         -3.11403       -0.13398       12.61080
H         -4.50596        1.59486       11.58121
H         -1.33965        4.51380       12.02074
