156

C          3.15197       -1.06686        3.71046
C          2.00678       -0.45899        4.22790
C          0.81134       -0.62209        3.54040
C          0.74904       -1.37142        2.34473
C          1.88578       -1.97691        1.83650
C          3.09066       -1.82256        2.52773
C         -0.60912       -1.36108        1.84502
C         -1.42072       -0.61005        2.71455
C         -0.58196       -0.08729        3.89180
C         -0.58769        1.46909        3.96345
C          0.02709        2.20637        2.76909
C         -1.08230       -0.69003        5.24215
C         -0.99010       -2.21431        5.38691
C         -2.78160       -0.44004        2.45820
C         -3.37644       -1.04703        1.32811
C         -2.52907       -1.79671        0.47373
C         -1.15480       -1.94904        0.71956
C         -4.83662       -0.90169        1.05024
C         -5.76646       -0.74798        2.09841
C         -7.12168       -0.54375        1.82560
C         -7.60626       -0.56944        0.50598
C         -6.72513       -0.75692       -0.54428
C         -5.35253       -0.90332       -0.26855
C         -9.04630       -0.39204        0.51672
C         -9.49272       -0.23665        1.84108
C         -8.28378       -0.32977        2.81273
C         -8.14905        1.03369        3.55626
C         -7.04203        1.15373        4.60234
C         -8.42261       -1.53468        3.77894
C         -8.46066       -2.91170        3.10967
C        -10.85460       -0.03073        2.12559
C        -11.81767        0.01149        1.08443
C        -11.32663       -0.14760       -0.23376
C         -9.96090       -0.36207       -0.52040
C        -13.28592        0.25306        1.35704
C        -14.45651       -0.15240        0.70685
C        -14.51858       -1.08703       -0.43377
O        -13.61674       -1.84421       -0.75158
C        -15.83471       -1.16248       -1.07749
C        -17.03168       -0.65097       -0.46497
C        -18.17284       -1.15834       -1.07733
S        -17.78858       -1.86423       -2.58326
C        -16.09715       -1.68242       -2.33940
C        -15.18216       -2.06760       -3.46698
F        -13.87359       -1.83505       -3.21769
F        -15.30696       -3.37418       -3.80527
F        -15.47316       -1.34335       -4.58305
C        -19.60738       -1.14345       -0.61435
F        -19.71631       -1.13025        0.73794
F        -20.29521       -0.08271       -1.09890
F        -20.27261       -2.26059       -1.01964
C        -17.02591        0.25231        0.69178
O        -18.03186        0.84962        1.01635
C        -15.68162        0.45204        1.29035
C        -15.40942        1.20170        2.43877
S        -13.70675        1.23826        2.70969
C        -16.29591        1.91534        3.42680
C        -15.88629        3.10126        4.08970
C        -16.72779        3.72254        5.02631
C        -18.01378        3.21241        5.28812
C        -18.44136        2.06003        4.65470
C        -17.57085        1.40451        3.76381
C        -18.67856        4.04622        6.26971
C        -17.80994        5.07059        6.67972
C        -16.47658        4.97023        5.91418
C        -16.26106        6.21767        5.00732
C        -16.16177        7.56532        5.72380
C        -15.28237        4.75985        6.88190
C        -15.35417        3.51926        7.77169
C        -18.19376        5.99139        7.66184
C        -19.48565        5.95360        8.22005
C        -20.33929        4.91483        7.77451
C        -19.94518        3.96239        6.81712
C        -19.94165        6.96474        9.22226
C        -19.04448        7.60393       10.10425
C        -19.52086        8.52947       11.03657
C        -20.88804        8.85378       11.11666
C        -21.78761        8.25507       10.26085
C        -21.31141        7.32327        9.32466
C        -21.09660        9.82491       12.16902
C        -19.85776       10.11935       12.77861
C        -18.73703        9.32316       12.09064
C        -17.69915       10.26684       11.41308
C        -18.22828       11.16501       10.29095
C        -18.01108        8.37496       13.08994
C        -18.87194        7.27750       13.72071
C        -19.78209       11.01175       13.84191
C        -20.96089       11.62339       14.28212
C        -22.18970       11.34015       13.66686
C        -22.26372       10.43302       12.60559
H          4.10177       -0.95678        4.22824
H          2.05791        0.12299        5.14196
H          1.84948       -2.56156        0.92415
H          3.99305       -2.29330        2.14462
H         -0.03846        1.79328        4.85751
H         -1.61623        1.83113        4.08975
H          1.09298        1.98281        2.65870
H         -0.05510        3.28917        2.91800
H         -0.47780        1.96313        1.82998
H         -2.12780       -0.40096        5.41207
H         -0.50591       -0.25454        6.06887
H         -1.60343       -2.73693        4.64700
H         -1.34484       -2.51544        6.37929
H          0.04049       -2.57207        5.29822
H         -3.37286        0.16947        3.13511
H         -2.93519       -2.29361       -0.40509
H         -0.54022       -2.52714        0.03755
H         -5.43639       -0.80625        3.13078
H         -7.07446       -0.78370       -1.57117
H         -4.68006       -1.01089       -1.11741
H         -9.09335        1.26415        4.06652
H         -8.00021        1.83957        2.82357
H         -7.16853        0.43455        5.41589
H         -7.06262        2.15435        5.04848
H         -6.04717        1.02837        4.17110
H         -9.33072       -1.41880        4.38303
H         -7.58109       -1.55273        4.48187
H         -9.21614       -2.96820        2.32147
H         -8.69398       -3.68139        3.85213
H         -7.48893       -3.17014        2.67521
H        -11.15153        0.10146        3.16185
H        -11.99777       -0.11125       -1.08839
H         -9.64059       -0.50316       -1.54855
H        -14.91397        3.54121        3.88808
H        -19.42991        1.65195        4.84161
H        -17.93296        0.47472        3.33041
H        -17.07521        6.29263        4.27365
H        -15.33991        6.08439        4.42517
H        -17.11950        7.86153        6.15865
H        -15.89920        8.35556        5.01477
H        -15.40375        7.56063        6.51172
H        -15.19054        5.62472        7.54959
H        -14.34774        4.71086        6.30859
H        -16.28037        3.48367        8.35263
H        -14.52246        3.52918        8.48437
H        -15.27394        2.59949        7.18539
H        -17.49160        6.75654        7.97453
H        -21.34189        4.81996        8.18609
H        -20.63649        3.18182        6.51973
H        -17.98256        7.38171       10.08466
H        -22.84537        8.48990       10.30455
H        -22.04548        6.87852        8.65608
H        -16.88841        9.66230       10.98534
H        -17.23432       10.91171       12.17020
H        -18.63350       10.58268        9.45734
H        -17.41014       11.77120        9.88641
H        -19.00368       11.84996       10.64546
H        -17.56248        8.96195       13.90236
H        -17.17702        7.87792       12.57710
H        -19.69156        7.69236       14.31415
H        -18.25874        6.66042       14.38673
H        -19.29442        6.60718       12.96587
H        -18.83950       11.23426       14.33130
H        -20.92983       12.32606       15.11202
H        -23.09581       11.82752       14.02161
H        -23.21956       10.21637       12.14071
