112

C         -4.93079        1.83820       -1.63274
C         -4.37542        1.53481       -2.87966
C         -4.60744        0.29566       -3.48938
C         -5.42399       -0.65739       -2.87949
C         -6.01484       -0.34400       -1.66290
C         -5.74976        0.90081       -1.01728
C         -6.40580        0.89100        0.33544
C         -6.69538        1.94108        1.13857
C         -6.35706        3.27849        0.79900
N         -6.08034        4.37483        0.52426
C         -7.42297        1.77945        2.35009
N         -8.00562        1.63473        3.34321
C         -6.79946       -0.52317        0.55202
C         -6.94355       -1.12131       -0.79478
C         -7.92960       -1.94428       -1.22048
C         -9.04989       -2.24279       -0.38532
N         -9.99689       -2.42540        0.25745
C         -8.00537       -2.42401       -2.56216
N         -8.04621       -2.83148       -3.64638
C         -6.61866       -1.19354        1.71057
C         -6.54691       -2.62634        1.87383
C         -5.64868       -3.40476        1.22775
C         -5.87288       -4.78191        1.64146
C         -6.90051       -4.73549        2.65784
C         -7.30546       -3.46740        2.79788
F         -7.37450       -5.78766        3.34002
C         -5.28701       -5.86157        1.11289
C         -5.56508       -7.23684        1.47229
C         -4.90366       -8.02523        0.59998
C         -4.10805       -7.18959       -0.28849
C         -4.33275       -5.91099        0.02572
F         -3.78198       -4.85235       -0.57880
C         -4.96255       -9.44976        0.69123
C         -4.86269      -10.29843       -0.34370
C         -4.94103      -11.71552       -0.16617
S         -5.18054      -12.37821        1.40678
C         -4.99958      -13.97049        0.88343
C         -4.80298      -14.04013       -0.47633
C         -4.87134      -12.73948       -1.11309
C         -4.76091      -12.60094       -2.62183
S         -6.18544      -11.67995       -3.31386
C         -4.69684      -13.96326       -3.35290
C         -3.88483      -15.00436       -2.57886
C         -4.56110      -15.30306       -1.24257
C         -5.09005      -14.99104        1.85153
C         -3.99216      -15.38529        2.50738
C         -4.01733      -16.36057        3.56023
C         -2.89812      -16.77347        4.19549
C         -3.29417      -17.74418        5.20265
C         -4.73462      -17.85911        5.11529
C         -5.16783      -17.04414        4.15271
F         -5.50983      -18.64007        5.87745
C         -2.47497      -18.39212        6.03497
C         -2.88650      -19.35771        7.03195
C         -1.77938      -19.81573        7.65195
C         -0.61929      -19.11673        7.10248
C         -1.03704      -18.29061        6.13835
F         -0.25424      -17.50067        5.39347
C         -1.80002      -20.77216        8.72208
C         -2.72324      -21.74182        8.82039
C         -2.72824      -22.70528        9.88682
C         -1.75276      -23.59278       10.15385
C         -1.59844      -24.25669       11.47022
C         -2.57777      -24.83835       12.19121
C         -3.93255      -24.87380       11.76467
N         -5.04450      -24.88405       11.42163
C         -2.31231      -25.52085       13.40480
N         -2.09874      -26.07569       14.40132
C         -0.12237      -24.23034       11.73586
C          0.55698      -23.87805       10.53235
C          1.93306      -23.68535       10.52457
C          2.64596      -23.88664       11.70663
C          1.98535      -24.24603       12.88660
C          0.59639      -24.40283       12.91209
C         -0.45673      -23.72704        9.44790
C         -0.26135      -23.91027        8.12026
C          1.02974      -24.10932        7.55565
N          2.08479      -24.25989        7.09611
C         -1.34931      -24.04416        7.20701
N         -2.21977      -24.19489        6.45483
H         -4.68317        2.79253       -1.18179
H         -3.73720        2.26424       -3.37571
H         -4.14039        0.07170       -4.44681
H         -5.55968       -1.61826       -3.36591
H         -6.35324       -0.66812        2.62668
H         -4.88946       -3.08616        0.53114
H         -8.06620       -3.12493        3.47795
H         -6.21255       -7.56798        2.27060
H         -3.44658       -7.55637       -1.05510
H         -5.12712       -9.80155        1.70685
H         -4.72181       -9.90825       -1.34790
H         -3.85079      -12.03638       -2.85627
H         -7.12850      -12.31370       -2.59949
H         -4.25661      -13.82749       -4.34862
H         -5.70228      -14.37970       -3.50813
H         -2.86563      -14.63173       -2.41501
H         -3.80469      -15.92962       -3.15941
H         -3.92668      -15.98473       -0.66462
H         -5.52246      -15.80439       -1.40668
H         -6.07677      -15.38068        2.07346
H         -3.02396      -14.94480        2.26986
H         -1.88826      -16.44736        4.00221
H         -6.19735      -16.90700        3.86696
H         -3.90574      -19.64796        7.23344
H          0.40177      -19.26130        7.41345
H         -1.00615      -20.67781        9.46012
H         -3.53408      -21.83689        8.09900
H         -3.59022      -22.58063       10.54010
H          2.47741      -23.36641        9.64201
H          3.72606      -23.75114       11.71400
H          2.55959      -24.38668       13.80038
H          0.12648      -24.63239       13.86210
