117

C         -2.87588        3.72584        1.39352
C         -3.27848        4.82277        2.16282
C         -4.59899        4.93723        2.62054
C         -5.53854        3.94003        2.35089
C         -5.13664        2.83466        1.61465
C         -3.80881        2.73822        1.10468
C         -3.74710        1.54107        0.20382
C         -2.65337        0.82846       -0.16338
C         -1.33575        1.19003        0.22448
N         -0.24462        1.47671        0.52381
C         -2.80016       -0.39099       -0.89117
N         -2.97870       -1.37252       -1.48698
C         -5.16762        1.17234       -0.04849
C         -5.90307        1.64223        1.14307
C         -6.80490        0.95415        1.87946
C         -7.16099       -0.40045        1.59615
N         -7.42627       -1.51638        1.50123
C         -7.29268        1.43200        3.12369
N         -7.69187        1.81270        4.14671
C         -5.66484        0.86073       -1.26434
C         -7.05273        0.81324       -1.59059
S         -7.88094        2.25088       -2.06106
C         -9.35949        1.42417       -2.28727
C         -9.23850        0.07012       -2.06287
C         -7.87311       -0.29011       -1.77775
C         -7.44860       -1.73653       -1.76605
C         -8.42795       -2.65413       -2.54979
C         -9.85237       -2.39187       -2.01129
C        -10.33362       -0.94946       -2.22418
C         -8.33210       -2.62896       -4.10887
C         -7.82441       -1.54400       -4.72986
C         -8.63884       -3.76735       -4.97489
S         -8.35204       -5.35700       -4.38055
C         -8.91603       -6.12741       -5.80037
C         -9.11458       -5.20936       -6.80896
C         -9.15566       -3.85463       -6.27955
C         -9.68380       -2.72683       -7.13866
N        -10.95919       -2.30345       -6.56376
C         -9.92054       -3.09259       -8.61870
C         -9.04941       -4.24741       -9.10034
C         -9.36761       -5.49426       -8.26944
N         -8.51218       -6.58356       -8.73740
C         -9.00774       -7.54028       -5.79174
C         -9.94435       -8.23431       -6.45569
C        -10.03458       -9.66202       -6.41858
S        -11.24222      -10.42632       -7.39806
C        -10.79712      -11.98735       -6.88891
C         -9.76242      -11.95830       -5.98397
C         -9.30576      -10.62190       -5.71871
C         -8.13344      -10.35762       -4.80021
C         -7.60533      -11.57820       -4.02788
C         -7.71087      -12.84828       -4.90465
C         -9.14638      -13.14454       -5.32624
C         -6.19239      -11.35694       -3.45877
C         -5.12371      -12.07290       -3.86124
C         -5.98804      -10.29138       -2.46793
C         -5.52093      -10.43342       -1.20762
C         -4.80515       -9.36814       -0.44710
C         -5.19064       -8.07993       -0.27976
C         -6.39790       -7.58182       -0.85216
N         -7.37785       -7.18619       -1.32634
C         -4.46551       -7.15643        0.52232
N         -3.86790       -6.40131        1.17465
C         -3.62171      -10.07179        0.16705
C         -3.79160      -11.47885        0.00137
C         -2.78516      -12.37148        0.34586
C         -1.62287      -11.87105        0.92999
C         -1.46943      -10.49658        1.14789
C         -2.45814       -9.58818        0.75208
C         -5.14185      -11.71505       -0.57679
C         -5.96421      -12.74120       -0.26477
C         -5.50792      -13.91780        0.40180
N         -5.13432      -14.88363        0.92008
C         -7.37363      -12.62959       -0.41436
N         -8.53294      -12.52858       -0.43903
H         -1.85774        3.70385        1.01873
H         -2.56558        5.61540        2.38609
H         -4.89861        5.82220        3.17951
H         -6.56132        4.06802        2.69187
H         -4.99760        0.71302       -2.11038
H        -10.24408        1.96122       -2.60653
H         -7.45054       -2.08693       -0.73622
H         -6.42084       -1.85177       -2.12711
H         -8.14744       -3.66482       -2.22587
H         -9.84786       -2.59279       -0.92865
H        -10.57273       -3.09691       -2.44056
H        -11.13155       -0.73238       -1.50213
H        -10.77055       -0.85834       -3.22459
H         -7.56522       -0.62999       -4.21533
H         -7.60758       -1.50354       -5.78655
H         -8.98843       -1.88866       -7.13455
H        -10.84259       -2.17119       -5.56010
H        -11.22183       -1.40139       -6.94993
H         -9.73025       -2.20976       -9.24090
H        -10.97015       -3.36483       -8.79457
H         -7.98859       -3.97509       -9.00657
H         -9.24140       -4.43913      -10.16252
H        -10.41856       -5.77759       -8.40090
H         -7.53687       -6.35985       -8.55466
H         -8.61231       -6.69751       -9.74260
H         -8.26016       -8.01344       -5.17895
H        -10.67658       -7.70499       -7.05958
H        -11.31472      -12.85690       -7.27273
H         -8.44463       -9.62329       -4.04749
H         -7.32723       -9.92910       -5.41164
H         -8.27294      -11.72535       -3.16963
H         -7.32654      -13.71524       -4.35703
H         -7.09965      -12.72280       -5.81027
H         -9.74019      -13.41511       -4.44587
H         -9.14666      -14.00288       -6.00708
H         -5.19192      -12.83398       -4.63236
H         -4.12730      -11.92251       -3.45858
H         -6.06763       -9.29711       -2.91064
H         -2.86594      -13.43888        0.16702
H         -0.82715      -12.55546        1.21788
H         -0.55683      -10.12879        1.61410
H         -2.26621       -8.53214        0.90391
