92

C          1.79820       -2.48830       -0.48274
C          2.50134       -3.52548       -0.99037
C          2.51738       -3.80429       -2.38825
N          2.52596       -3.99512       -3.53070
C          3.39783       -4.28516       -0.18192
N          4.15262       -4.88128        0.46845
C          1.05592       -1.46106       -1.24365
C          1.18395       -0.24248       -0.54982
C          0.57939        0.92708       -0.97029
C         -0.24735        0.85239       -2.09425
C         -0.44583       -0.37823       -2.76182
C          0.22233       -1.54153       -2.34656
Cl        -1.56648       -0.53904       -4.06924
Cl        -1.05915        2.29883       -2.57772
C          1.83956       -0.47061        0.76029
O          2.14187        0.36223        1.58491
C          1.89731       -1.96266        0.87886
C          1.59968       -2.52102        2.06228
C          1.01040       -3.82955        2.21262
C         -0.21704       -4.15410        1.73616
C         -0.45414       -5.56681        2.01713
C          0.72271       -6.02813        2.72522
C          1.58334       -5.01177        2.84794
F          0.92565       -7.27835        3.15863
C         -1.52592       -6.28525        1.65356
C         -1.73463       -7.71296        1.87326
C         -2.89411       -8.06590        1.27432
C         -3.50328       -6.85973        0.71245
C         -2.69225       -5.82233        0.93093
F         -2.92377       -4.55988        0.54932
C         -3.41725       -9.41162        1.27127
C         -4.23196       -9.86450        0.30407
C         -4.73794      -11.20098        0.25144
C         -5.02352      -11.98716       -0.87274
C         -4.76877      -11.59707       -2.26838
O         -5.46672      -11.95145       -3.20793
O         -3.67658      -10.81447       -2.47587
C         -5.65718      -13.22713       -0.48445
C         -5.79678      -13.35747        0.87701
S         -5.18872      -12.01272        1.70947
C         -6.09426      -14.25962       -1.35907
C         -5.37226      -15.33565       -1.74367
C         -6.22260      -16.15103       -2.60698
C         -7.49403      -15.46002       -2.68313
C         -7.42559      -14.34331       -1.95049
F         -8.56644      -15.87524       -3.37097
C         -5.87967      -17.30165       -3.20281
C         -6.72421      -18.11834       -4.06356
C         -5.99455      -19.17130       -4.49256
C         -4.66811      -19.08949       -3.87765
C         -4.60582      -17.98417       -3.13000
F         -3.54505      -17.58423       -2.41757
C         -6.52891      -20.20495       -5.34439
C         -5.77397      -20.92766       -6.18520
C         -6.32013      -21.96541       -7.03463
C         -5.64081      -22.73872       -7.89728
C         -6.14815      -23.77037       -8.83380
C         -7.24346      -24.55545       -8.67177
C         -7.57863      -25.60554       -9.57342
N         -7.84594      -26.45982      -10.31116
C         -8.10994      -24.44653       -7.54844
N         -8.82113      -24.35254       -6.63100
C         -5.10510      -23.92664       -9.89235
C         -3.94569      -23.25956       -9.47213
C         -4.17802      -22.56237       -8.20305
O         -3.32248      -21.96706       -7.58401
C         -2.76832      -23.21923      -10.20327
C         -2.75224      -23.86353      -11.43733
C         -3.91017      -24.51343      -11.90803
C         -5.08958      -24.54137      -11.13807
Cl        -3.95438      -25.29529      -13.45003
Cl        -1.28768      -23.80570      -12.34947
H          0.69536        1.84565       -0.40287
H          0.02934       -2.48590       -2.84911
H          1.60275       -1.90920        2.96471
H         -0.90401       -3.49934        1.21908
H          2.55506       -5.05507        3.31280
H         -1.05097       -8.37100        2.38819
H         -4.45663       -6.82216        0.21037
H         -3.09296      -10.05234        2.08991
H         -4.50312       -9.20497       -0.51863
H         -3.11013      -10.72461       -1.68856
H         -6.23201      -14.18426        1.42386
H         -4.35735      -15.56205       -1.45883
H         -8.21109      -13.61794       -1.81990
H         -7.74893      -17.90243       -4.32304
H         -3.87870      -19.81213       -4.00552
H         -7.60268      -20.37094       -5.28264
H         -4.70811      -20.72104       -6.24004
H         -7.39841      -22.06757       -6.94298
H         -1.90161      -22.68399       -9.82439
H         -5.96370      -25.03125      -11.55462
