87

C          4.08514       -2.65295       -7.96381
C          3.39154       -2.10144       -9.04590
C          3.39395       -0.69683       -9.00200
C          4.03422       -0.17215       -7.91810
S          4.67759       -1.39897       -6.96450
C          3.98179        1.28753       -7.97738
C          3.31823        1.67592       -9.11564
C          2.88943        0.40329       -9.87272
C          2.28345        0.19575      -11.09270
C          1.81708        1.20662      -11.99497
N          1.40465        1.92069      -12.80621
C          2.08880       -1.11043      -11.69711
N          1.89338       -2.10940      -12.25325
C          3.31798        3.10176       -9.27035
C          4.01596        3.81104       -8.22471
S          4.56683        2.62204       -7.11278
C          4.43297        5.30521       -8.22217
C          4.82094        6.07525       -7.14949
C          5.42875        7.36868       -7.12705
C          5.86446        7.80032       -5.82527
C          5.58655        6.84167       -4.83158
S          4.72180        5.59467       -5.57605
C          5.98550        6.70200       -3.53772
C          6.80997        7.45554       -2.67425
C          7.09786        6.76569       -1.44814
C          6.52434        5.47972       -1.35309
S          5.61574        5.28814       -2.71539
C          6.69806        4.55741       -0.36489
C          6.22319        3.10062       -0.32676
C          5.75283        2.36372       -1.44214
C          5.40191        0.99267       -1.35393
F          4.97907        0.37140       -2.48461
C          5.50658        0.27522       -0.13615
C          5.97313        1.03917        0.96721
C          6.32154        2.39179        0.87925
F          6.76823        3.00092        2.00769
C          5.15485       -1.23695       -0.08417
C          5.21904       -2.07491        0.99981
C          4.95514       -3.46574        1.11964
C          5.16858       -4.00681        2.43931
C          5.59423       -3.04160        3.34735
S          5.66209       -1.61831        2.49667
C          5.94142       -3.05573        4.64950
C          6.03042       -4.02798        5.65821
C          6.49644       -3.49044        6.90657
C          6.79657       -2.12368        6.84926
S          6.42855       -1.64597        5.33666
C          7.30542       -1.30084        7.78745
C          7.77852        0.08627        7.48443
C          8.30890        0.96672        8.43635
C          8.85586        2.09605        7.83598
C          8.73193        2.10761        6.47913
S          7.96417        0.77926        5.93090
C          9.21558        3.26305        5.81324
C          9.78574        4.16967        6.64022
Ge         9.80091        3.64233        8.48392
C          8.97373        5.24360        9.07450
C         10.86540        3.37065       10.08785
C         10.06730        5.36577        6.02162
C          9.68131        5.34316        4.67960
S          9.03724        3.83073        4.25475
H          4.22491       -3.71838       -7.80354
H          2.93115       -2.70965       -9.81282
H          2.87913        3.59084      -10.12374
H          4.54859        5.75252       -9.20261
H          5.66103        7.95147       -8.01695
H          6.44261        8.71500       -5.67017
H          7.25704        8.41913       -2.90781
H          7.76547        7.16569       -0.69034
H          7.29554        4.87915        0.48543
H          5.68178        2.80712       -2.41213
H          6.11355        0.65883        1.94200
H          4.84153       -1.70164       -1.01608
H          4.63645       -4.08824        0.29527
H          5.03181       -5.04819        2.70609
H          5.79668       -5.07390        5.51914
H          6.65882       -4.08640        7.79527
H          7.48357       -1.66518        8.78935
H          8.33281        0.78491        9.49605
H          8.09079        5.44059        8.44349
H          9.76423        6.01073        8.90454
H          8.75245        5.18275       10.15397
H         11.76306        2.75212        9.92116
H         10.17901        2.89165       10.82212
H         11.15071        4.35723       10.51574
H         10.44688        6.22728        6.54388
H          9.72098        6.19050        4.02089
