105

C         -0.39077        2.08632       -0.00431
C         -0.65408        2.80246       -1.17102
F          0.06084        3.90361       -1.43849
C         -1.64276        2.38568       -2.05101
F         -1.87996        3.07115       -3.17742
C         -2.40171        1.25731       -1.77185
C         -2.17128        0.53621       -0.59385
C         -1.13505        0.93698        0.30483
C         -0.87197        0.18091        1.47382
C         -1.64916       -0.93414        1.76073
C         -2.67945       -1.26423        0.86938
C         -2.95466       -0.57573       -0.29762
C         -3.37579       -2.47048        1.31312
O         -4.47904       -2.81651        0.94967
C         -2.48096       -3.08263        2.34356
C         -1.63022       -1.97059        2.83935
C         -1.09131       -1.85382        4.07787
C         -1.25597       -2.84986        5.08304
N         -1.38954       -3.67364        5.88819
C         -0.37819       -0.68826        4.48506
N          0.20775        0.25711        4.81468
C         -2.35597       -4.40248        2.56340
C         -3.04273       -5.43047        1.84407
C         -3.50449       -5.48710        0.52353
C         -4.09232       -6.72795        0.22115
C         -4.00820       -7.58982        1.28675
S         -3.30370       -6.96107        2.64935
C         -4.53851       -8.83418        0.90218
C         -4.96803       -8.75456       -0.40579
C         -4.73127       -7.40012       -0.90593
C         -5.04543       -6.89280       -2.11805
C         -5.68750       -7.67994       -3.11017
N         -6.21435       -8.32742       -3.92177
C         -4.73827       -5.54959       -2.46848
N         -4.46528       -4.46282       -2.77319
C         -5.47242       -9.98787       -0.85650
C         -5.40245      -10.95494        0.14728
S         -4.71694      -10.32130        1.61124
C         -5.81051      -12.33537        0.06705
C         -6.29609      -13.13955        1.09913
C         -6.59630      -14.43290        0.63007
C         -6.32573      -14.55822       -0.71522
S         -5.71663      -13.19717       -1.43811
C         -6.63597      -15.86894       -1.12554
C         -7.08676      -16.57047       -0.03360
C         -7.10800      -15.70215        1.13984
C         -7.52545      -15.99995        2.38726
C         -8.02284      -17.28606        2.72739
N         -8.46197      -18.32505        3.00223
C         -7.52065      -15.03151        3.42819
N         -7.52331      -14.23831        4.27540
C         -7.35540      -17.90742       -0.36315
C         -7.18570      -18.15751       -1.72979
S         -6.57756      -16.73324       -2.54202
C         -7.35708      -19.35940       -2.48898
C         -8.22805      -20.33725       -2.19196
C         -8.24376      -21.63574       -2.83529
C         -8.87052      -22.57363       -2.10357
C         -9.37308      -22.05740       -0.84052
S         -9.42843      -20.30635       -0.92532
C         -9.59961      -22.75475        0.28739
C         -9.47814      -24.18933        0.45531
C         -9.40815      -24.57622        1.73768
C         -9.45074      -23.47132        2.66913
S         -9.89371      -21.99593        1.85159
C         -9.17175      -23.57171        3.97688
C         -9.12676      -22.46581        4.91992
C         -9.38668      -22.54580        6.23418
C         -9.49990      -21.47321        7.24610
C         -8.83141      -20.29344        7.28190
C         -8.89454      -19.40894        8.39681
N         -8.93831      -18.69604        9.31283
C         -7.93652      -19.87563        6.25601
N         -7.17565      -19.51555        5.45757
C        -10.37683      -22.01406        8.32864
C        -10.53777      -23.38557        8.12812
C         -9.87981      -23.80817        6.88735
O         -9.80158      -24.95627        6.50205
C        -11.30661      -24.21016        8.94232
C        -12.00349      -23.60737       10.01203
C        -11.87859      -22.22233       10.20068
C        -11.06680      -21.40756        9.37137
S        -12.84407      -21.68559       11.52923
C        -13.41032      -23.24596       11.83080
C        -12.89484      -24.18622       10.97960
Br       -14.63421      -23.64510       13.19129
H          0.39439        2.44637        0.65548
H         -3.16956        0.95530       -2.47983
H         -0.04914        0.48364        2.11571
H         -3.74838       -0.92026       -0.95629
H         -1.62788       -4.76313        3.28577
H         -3.41090       -4.66539       -0.17332
H         -5.86871      -10.19687       -1.84323
H         -6.42234      -12.77964        2.11358
H         -7.66170      -18.66747        0.34308
H         -6.67581      -19.50646       -3.32470
H         -7.73289      -21.83584       -3.76670
H         -8.91989      -23.61596       -2.38120
H         -9.42013      -24.87614       -0.37542
H         -9.28997      -25.60256        2.05664
H         -8.92182      -24.55384        4.37355
H         -8.89494      -21.50526        4.46239
H        -11.39855      -25.27177        8.72822
H        -11.04535      -20.33913        9.55420
H        -13.14578      -25.23945       11.01975
