118

C         -6.36836        0.10712        2.27152
C         -5.96276       -0.31909        3.53338
F         -5.79014        0.58730        4.50481
C         -5.72519       -1.66309        3.78406
F         -5.31263       -2.06154        4.99477
C         -5.89876       -2.60904        2.78101
C         -6.28954       -2.20240        1.49847
C         -6.52396       -0.81907        1.23046
C         -6.88817       -0.39403       -0.06619
C         -6.98470       -1.32484       -1.09080
C         -6.77362       -2.67806       -0.78344
C         -6.44089       -3.14109        0.47790
C         -7.01452       -3.52548       -1.95932
O         -6.84007       -4.72396       -2.00797
C         -7.56583       -2.60013       -3.00563
C         -7.27530       -1.22473       -2.54994
C         -7.11249       -0.13367       -3.33609
C         -7.15097       -0.22495       -4.75850
N         -7.16973       -0.32906       -5.91437
C         -6.81112        1.15427       -2.81624
N         -6.58714        2.20827       -2.38367
C         -8.39901       -2.99033       -3.98455
C         -8.82348       -4.33810       -4.27566
C         -8.53391       -4.90887       -5.46904
C         -9.03380       -6.26506       -5.50646
C         -8.90409       -7.14790       -6.60440
N         -8.79594       -7.87436       -7.50238
C         -9.65103       -6.54284       -4.34906
C         -9.54585       -5.36796       -3.47828
C        -10.01710       -5.28778       -2.21286
C        -10.56404       -6.37813       -1.36780
C        -10.90777       -5.81547       -0.18674
C        -10.57441       -4.41058       -0.19439
C        -10.07253       -4.08029       -1.39064
C        -10.69674       -3.52917        0.91115
N        -10.76129       -2.78992        1.79883
C        -10.65169       -7.80714       -1.56759
C         -9.58237       -8.56826       -1.85565
C         -9.60380      -10.00813       -2.04342
C         -8.84784      -10.75504       -1.21938
C         -8.81255      -12.18590       -1.31237
C         -9.54117      -12.93423       -2.34145
C        -10.30339      -12.36627       -3.27500
S        -10.57262      -10.64268       -3.36714
C         -9.27741      -14.29985       -2.10098
C         -8.46203      -14.42357       -1.00099
C         -8.16192      -15.75273       -0.67566
C         -8.78662      -16.61040       -1.56805
S         -9.70348      -15.76648       -2.77754
C         -8.17121      -13.09518       -0.52698
C         -7.32225      -12.77363        0.58579
C         -7.53234      -13.20730        1.83685
C         -6.68616      -12.82875        2.93823
C         -6.48892      -11.52704        3.23266
C         -5.74398      -11.39872        4.46133
C         -5.46157      -10.13848        5.02140
N         -5.28388       -9.05882        5.41365
C         -5.45480      -12.62404        4.94325
C         -6.00285      -13.61416        4.00432
C         -5.86251      -14.95843        4.05775
C         -5.16994      -15.82188        5.04803
C         -5.34689      -17.09565        4.61833
C         -6.03164      -17.11351        3.35191
C         -6.34634      -15.85991        3.01175
C         -6.22406      -18.25718        2.54851
N         -6.35986      -19.18009        1.85528
C         -4.49152      -15.53376        6.29604
C         -3.46700      -16.27508        6.75073
C         -2.76046      -16.03639        7.99061
C         -1.78229      -16.80481        8.49627
C         -0.96825      -16.32447        9.66110
O         -1.19868      -15.38443       10.39161
C          0.19605      -17.23077        9.73559
C          1.14499      -17.26830       10.74443
C          2.08561      -18.30903       10.72823
C          2.11480      -19.22308        9.63326
C          3.02594      -20.28966        9.64362
C          3.87371      -20.46998       10.73021
C          3.84685      -19.58318       11.79683
C          2.97208      -18.49968       11.79773
F          4.65262      -19.77413       12.84994
F          4.70065      -21.52411       10.74764
C          1.18404      -19.10277        8.58891
C          0.16379      -18.16599        8.68978
C         -1.17582      -18.06438        8.04105
C         -1.82818      -19.15648        7.57466
C         -3.23927      -19.28762        7.67943
N         -4.38643      -19.44096        7.80684
C         -1.16286      -20.32488        7.10589
N         -0.60921      -21.25583        6.70044
H         -6.54207        1.16870        2.11565
H         -5.70963       -3.65409        3.01275
H         -7.07905        0.66242       -0.23260
H         -6.30121       -4.20564        0.64759
H         -8.87046       -2.25909       -4.63921
H         -7.99820       -4.45079       -6.28903
H        -10.16026       -7.46615       -4.13750
H        -11.31882       -6.32278        0.67395
H         -9.76592       -3.08814       -1.66467
H        -11.63298       -8.25717       -1.43176
H         -8.59703       -8.10835       -1.94460
H         -8.26013      -10.28318       -0.43802
H        -10.80857      -12.97798       -4.01623
H         -7.54321      -16.09728        0.13733
H         -8.74958      -17.69173       -1.57480
H         -6.48320      -12.11779        0.35947
H         -8.38517      -13.84067        2.07363
H         -6.87681      -10.67946        2.68484
H         -4.91887      -12.82416        5.85252
H         -5.02276      -18.00227        5.11090
H         -6.79822      -15.58015        2.08287
H         -4.84819      -14.69010        6.87506
H         -3.12123      -17.10247        6.13806
H         -3.03153      -15.11996        8.51788
H          1.09267      -16.55576       11.56361
H          3.05796      -21.01842        8.83666
H          2.96971      -17.83547       12.65756
H          1.23596      -19.80991        7.76729
