100

C         -0.42620        0.46833        0.33566
C          0.22961       -0.54142        0.95332
C         -0.15940       -1.91473        0.80626
N         -0.47931       -3.02368        0.68537
C          1.41948       -0.30175        1.69969
N          2.38371       -0.08700        2.30822
C         -1.59312        0.32949       -0.57797
C         -1.59275        1.43032       -1.44570
C         -2.60885        1.70048       -2.34180
C         -3.73487        0.87550       -2.30973
C         -3.77065       -0.25440       -1.43952
C         -2.67636       -0.53741       -0.59300
C         -4.93736       -1.03225       -1.39468
C         -6.05931       -0.68262       -2.15007
C         -6.02447        0.43353       -2.98113
C         -4.86270        1.19806       -3.07469
C         -0.50902        2.35942       -1.09420
O         -0.10512        3.28164       -1.76758
C         -0.03379        1.89746        0.25250
C          0.35109        2.73318        1.23777
C          0.33242        4.16592        1.10353
S          1.78900        4.99226        0.68907
C          1.04251        6.56209        0.59527
C         -0.33654        6.38477        0.66054
C         -0.68387        5.09969        1.27094
C         -1.97622        4.84033        1.78756
C         -2.36790        3.72259        2.65937
O         -3.47561        3.21687        2.63190
O         -1.42250        3.38542        3.56209
C         -2.92130        5.86584        1.53597
C         -2.61666        7.05410        0.81693
C         -1.31807        7.35834        0.36548
O         -1.07365        8.47947       -0.37207
C          1.85848        7.78270        0.47709
C          1.64369        9.06130        0.97306
N          0.63746        9.34309        1.97071
O          0.78783        8.79348        3.07050
O         -0.26049       10.14480        1.68157
C          2.50350       10.08114        0.36327
C          2.18359       11.53801        0.49799
C          3.59176        9.50592       -0.30655
S          3.41844        7.76728       -0.23642
C          4.73919       10.08416       -1.06455
S          5.42521        9.08675       -2.34595
C          6.52970       10.26352       -2.90384
C          6.27582       11.46122       -2.27251
C          5.42666       11.30510       -1.06799
C          5.33273       12.38116       -0.14792
C          4.96423       12.33048        1.26561
O          4.51209       13.26425        1.90328
O          5.28975       11.16646        1.84424
C          5.87491       13.61404       -0.60682
C          6.58878       13.76447       -1.82192
C          6.87844       12.67832       -2.65676
O          7.65579       12.83673       -3.77232
C          7.52697        9.87093       -3.85419
C          7.41186       10.01911       -5.18348
C          8.32154        9.60748       -6.29396
C          9.65700        9.36515       -6.23553
C         10.44592        9.05030       -7.38715
N         11.09194        8.78566       -8.31493
C         10.40028        9.45100       -5.02614
N         11.02231        9.51394       -4.03930
C          7.49526        9.65063       -7.54525
C          6.26242       10.23841       -7.23990
C          6.15899       10.55295       -5.81578
O          5.20755       11.11425       -5.31327
C          5.24621       10.43759       -8.15930
C          5.45154       10.01254       -9.47027
C          6.68340        9.39893       -9.82616
C          7.69671        9.22024       -8.85294
C          6.85780        8.97064      -11.15229
C          5.84370        9.13553      -12.10009
C          4.63921        9.73225      -11.73979
C          4.44457       10.17083      -10.43165
H         -2.56181        2.58939       -2.96407
H         -2.74719       -1.37136        0.10045
H         -4.99949       -1.90055       -0.74138
H         -6.96910       -1.27317       -2.07489
H         -6.90725        0.71924       -3.54748
H         -4.86123        2.07456       -3.71969
H          0.55199        2.34299        2.23145
H         -0.65867        3.99513        3.59914
H         -3.94089        5.74153        1.91109
H         -3.43331        7.75385        0.63574
H         -1.84148        9.07579       -0.30245
H          1.10806       11.72734        0.51472
H          2.57144       12.12065       -0.33985
H          2.56118       11.91192        1.44943
H          5.07323       11.29649        2.79150
H          5.78010       14.49557        0.03198
H          6.96611       14.75570       -2.06796
H          7.77312       13.78876       -3.92746
H          8.40100        9.41314       -3.40406
H          4.31264       10.89380       -7.84142
H          8.61006        8.72240       -9.16127
H          7.78785        8.49832      -11.46302
H          5.99336        8.79380      -13.12147
H          3.84807        9.85468      -12.47519
H          3.49480       10.63135      -10.16671
