113

C         -8.93463      -15.76470       -9.02601
O         -8.35179      -15.60273       -7.79550
C         -9.16097      -14.53467       -9.54709
C         -9.69554      -13.86316      -10.68653
O        -10.16456      -14.35922      -11.69449
N         -9.54595      -12.52609      -10.38320
C         -8.96343      -12.28387       -9.15282
O         -8.72949      -11.20301       -8.64391
C         -8.70347      -13.58980       -8.62677
C         -8.17557      -14.23862       -7.53699
C         -7.60010      -13.78302       -6.32530
C         -6.92415      -12.62684       -6.21523
C         -6.44195      -12.12605       -4.91579
C         -7.27125      -12.33706       -3.78748
C         -6.92168      -11.90557       -2.50299
C         -5.75546      -11.18788       -2.31063
C         -4.96888      -10.90579       -3.41822
C         -5.26664      -11.40113       -4.69949
N         -4.18178      -11.07056       -5.53939
C         -4.05653      -11.37252       -6.93731
C         -3.14779      -10.45695       -4.81255
O         -2.01473      -10.21061       -5.20270
C         -3.71662      -10.05982       -3.44510
C         -3.95041       -8.52367       -3.37355
C         -5.12446       -8.17179       -2.43247
O         -5.12750       -8.31625       -1.21832
N         -6.17786       -7.70722       -3.22883
C         -7.49070       -7.37603       -2.74168
C         -5.76087       -7.51289       -4.54788
C         -6.46534       -7.01188       -5.62748
C         -5.79160       -6.87670       -6.85304
C         -4.41959       -7.18847       -6.93521
C         -3.72658       -7.68182       -5.83578
C         -4.42574       -7.88698       -4.66082
C         -6.52233       -6.36595       -8.02086
C         -6.20752       -6.69633       -9.28170
C         -6.90860       -6.22977      -10.41892
O         -6.54162       -6.64708      -11.70035
C         -7.97336       -5.38795      -10.60509
C         -8.93350       -4.58533       -9.90648
O         -9.07261       -4.42927       -8.70635
N         -9.69896       -4.01988      -10.90461
C         -9.31655       -4.37923      -12.17977
O         -9.81173       -4.02777      -13.23487
C         -8.21581       -5.26253      -11.97412
C         -7.34496       -6.05500      -12.66689
C         -7.23149       -6.28084      -14.05861
C         -6.71974       -7.42630      -14.53445
C         -6.61687       -7.71221      -15.95204
C         -5.92066       -7.00422      -16.85412
C         -5.88496       -7.28801      -18.26782
C         -5.23096       -6.36250      -18.98351
C         -4.70828       -5.26527      -18.18499
S         -4.94513       -5.60706      -16.47584
C         -4.19945       -4.10721      -18.64498
C         -4.06652       -3.71935      -20.03696
C         -3.80399       -2.41572      -20.20922
C         -3.70656       -1.68145      -18.96880
S         -3.71597       -2.76603      -17.60312
C         -3.65032       -0.34477      -18.87917
C         -3.62455        0.41434      -17.63935
C         -2.67061        1.28042      -17.26481
C         -2.50616        2.06758      -16.01620
C         -3.45755        2.37617      -15.09908
C         -3.21814        3.24416      -13.99411
N         -3.03438        3.95807      -13.09715
C         -4.79789        1.90897      -15.17413
N         -5.90283        1.53558      -15.21217
C         -1.09175        2.57316      -16.01895
C         -0.50974        2.26754      -17.25051
C         -1.43575        1.50497      -18.09466
O         -1.19582        1.14015      -19.22747
C          0.79965        2.58464      -17.60051
C          1.60468        3.22195      -16.63224
C          1.04207        3.51369      -15.38135
C         -0.30495        3.20144      -15.05712
S          2.20188        4.26145      -14.33935
C          3.40993        4.17487      -15.51485
C          2.98353        3.62238      -16.69257
Br         5.16410        4.76697      -15.22927
H         -9.10400      -16.78484       -9.34066
H         -9.82726      -11.78925      -11.00615
H         -7.74244      -14.43508       -5.46875
H         -6.75320      -11.98698       -7.07268
H         -8.22310      -12.85527       -3.88976
H         -7.57627      -12.11926       -1.66230
H         -5.48693      -10.83509       -1.31873
H         -4.89311      -10.93469       -7.48862
H         -4.01205      -12.45402       -7.08320
H         -3.14002      -10.92774       -7.34085
H         -3.03464      -10.40123       -2.65914
H         -3.05297       -7.99684       -3.03070
H         -7.58812       -7.65157       -1.68766
H         -8.24265       -7.92403       -3.31837
H         -7.65527       -6.29995       -2.84501
H         -7.51347       -6.74684       -5.53664
H         -3.86972       -7.06242       -7.86483
H         -2.67322       -7.92931       -5.92821
H         -7.35599       -5.71453       -7.78607
H         -5.37779       -7.36630       -9.49245
H        -10.46423       -3.39608      -10.71698
H         -7.59464       -5.50727      -14.73277
H         -6.39954       -8.21927      -13.86258
H         -7.17174       -8.59154      -16.27214
H         -6.36945       -8.15380      -18.70091
H         -5.13445       -6.40974      -20.05811
H         -4.20755       -4.40539      -20.85959
H         -3.70883       -1.94133      -21.17634
H         -3.66329        0.25017      -19.79149
H         -4.46984        0.18069      -16.99896
H          1.19360        2.31399      -18.57674
H         -0.65565        3.43576      -14.05930
H          3.61822        3.48384      -17.55974
