84

C        -11.53566        2.77398       -5.69619
C        -10.84499        1.92739       -6.49562
C        -11.24612        1.62884       -7.83149
N        -11.58129        1.38104       -8.91313
C         -9.62642        1.31132       -6.07758
N         -8.64753        0.81288       -5.72040
C        -12.73574        3.58043       -6.07753
C        -12.84802        4.64200       -5.17565
C        -13.86870        5.58356       -5.20046
C        -14.87020        5.43784       -6.18444
C        -14.77414        4.37151       -7.09286
C        -13.71171        3.42849       -7.05725
S        -16.10377        4.38314       -8.19920
C        -16.78421        5.74566       -7.47114
C        -16.05325        6.21968       -6.41572
Br       -18.38551        6.52896       -8.04720
C        -11.80425        4.56378       -4.14351
O        -11.54301        5.43641       -3.34412
C        -11.15950        3.22213       -4.33118
C        -10.59039        2.51430       -3.33915
C        -10.53415        2.94661       -1.98208
S         -9.19882        3.83755       -1.38216
C         -9.81610        3.86806        0.23793
C        -11.01532        3.18300        0.30306
C        -11.41933        2.65018       -0.96297
N        -11.74769        2.97136        1.51893
O        -12.10472        3.96758        2.15594
O        -11.98664        1.79184        1.80873
C         -9.03889        4.52302        1.24089
C         -9.19365        5.82499        1.52474
C         -8.24966        6.60767        2.29609
C         -8.26681        7.90416        1.94410
C         -9.19989        8.15713        0.85019
S        -10.39450        6.87524        0.80093
C         -8.97468        8.96810       -0.19812
C         -9.67557        8.93764       -1.46895
C         -8.87313        9.22607       -2.50591
C         -7.52154        9.56476       -2.09597
S         -7.49444        9.87842       -0.37243
C         -6.45633        9.51823       -2.91451
C         -5.09997        9.73951       -2.51695
S         -3.83017        9.01156       -3.41981
C         -2.59848        9.51785       -2.33007
C         -3.14276       10.36216       -1.37510
C         -4.55464       10.51230       -1.50902
N         -2.38367       11.02653       -0.35209
O         -1.65643       10.31573        0.35259
O         -2.55265       12.24563       -0.24262
C         -1.24209        9.14430       -2.56952
C         -0.66602        8.07400       -2.00201
C         -1.18738        7.02862       -1.11822
C         -2.20490        6.17490       -1.39473
C         -2.71083        5.23981       -0.45742
N         -3.14872        4.49876        0.32639
C         -2.67506        6.00797       -2.73257
N         -2.99058        5.78619       -3.82772
C         -0.07096        6.64098       -0.21343
C          1.11770        7.09041       -0.80457
C          0.82607        7.98351       -1.94610
O          1.63104        8.55178       -2.65188
C          2.37922        6.70389       -0.37454
C          2.44881        5.79811        0.70991
C          1.25984        5.41490        1.35262
C         -0.01614        5.85504        0.92835
S          1.57739        4.33167        2.66026
C          3.22980        4.31105        2.32286
C          3.58583        5.13914        1.29219
Br         4.45177        3.25094        3.26621
H        -13.91007        6.37694       -4.45908
H        -13.71793        2.60907       -7.76917
H        -16.33778        7.07990       -5.82097
H        -10.26035        1.49209       -3.49913
H        -12.31824        2.06141       -1.10606
H         -8.20239        3.97281        1.66350
H         -7.53779        6.18009        2.98850
H         -7.57250        8.64304        2.32039
H        -10.69705        8.59638       -1.57468
H         -9.18116        9.14944       -3.53954
H         -6.62025        9.20679       -3.94559
H         -5.13875       11.14502       -0.85256
H         -0.62571        9.85566       -3.11990
H          3.27195        7.04558       -0.89120
H         -0.89934        5.51852        1.46044
H          4.60255        5.25934        0.93807
