103

C         -4.54500       -2.25893        1.23677
C         -3.61411       -2.87091        0.46756
C         -3.17396       -4.20705        0.71172
N         -2.81526       -5.28654        0.91827
C         -3.05404       -2.24399       -0.68355
N         -2.59562       -1.72447       -1.61096
C         -5.30251       -2.86775        2.36706
C         -6.48923       -2.14867        2.53602
C         -7.42675       -2.42268        3.52297
C         -7.11110       -3.43217        4.46057
C         -5.90225       -4.13322        4.32016
C         -4.98944       -3.88165        3.26456
S         -5.69459       -5.27430        5.60225
C         -7.14283       -4.81219        6.33465
C         -7.82656       -3.85633        5.63269
Br        -7.74351       -5.52403        7.95986
C         -6.51439       -0.97305        1.64731
O         -7.42795       -0.18400        1.52359
C         -5.15667       -0.93504        1.00765
C         -4.59591        0.20077        0.55741
C         -5.26017        1.51948        0.53001
C         -5.99907        1.99053       -0.54660
C         -6.59978        3.31051       -0.57081
N         -7.23651        3.65838       -1.71396
C         -7.38417        2.75435       -2.72534
C         -6.85589        1.49315       -2.64577
N         -6.12527        1.12440       -1.57240
C         -7.06604        0.46985       -3.62835
N         -7.25579       -0.37278       -4.40404
C         -8.13424        3.20612       -3.85900
N         -8.73351        3.55169       -4.78883
C         -6.55181        4.22471        0.54501
C         -5.85198        3.71830        1.69148
C         -5.17340        2.35785        1.66396
N         -4.51597        2.05994        2.79843
S         -4.77591        3.31201        3.84224
N         -5.70935        4.29587        2.89676
C         -7.25296        5.57948        0.58371
S         -8.77142        5.71830       -0.28478
C         -9.03568        7.38941        0.04896
C         -8.11708        7.78545        1.00063
C         -7.03060        6.80997        1.21465
C         -5.91571        7.13778        2.01455
C         -6.01031        8.40711        2.63651
F         -5.00226        8.78796        3.43711
C         -7.10042        9.29611        2.47467
F         -7.08764       10.46391        3.13817
C         -8.19250        9.03389        1.64274
C        -10.11375        8.05389       -0.63896
C        -10.08492        9.36357       -0.95156
C        -11.13302       10.06788       -1.68931
C        -11.16120       11.38026       -1.97763
C        -12.22009       12.03981       -2.71305
C        -12.06539       13.36874       -2.82399
C        -10.86658       13.88112       -2.18385
S         -9.93727       12.53419       -1.50986
C        -10.49041       15.17024       -2.06922
C        -11.19644       16.34192       -2.56013
C        -10.62914       17.50815       -2.21269
C         -9.42362       17.35604       -1.42996
S         -9.02353       15.67073       -1.22904
C         -8.70651       18.36835       -0.91595
C         -7.47175       18.24484       -0.16254
C         -6.30953       17.72536       -0.58743
C         -5.22844       17.43473        0.41733
O         -5.13791       17.84510        1.55564
C         -4.30307       16.49966       -0.25136
C         -3.13344       15.96640        0.26761
C         -2.37927       15.11029       -0.54968
C         -2.89273       14.71597       -1.82005
C         -2.15076       13.84393       -2.62532
C         -0.89181       13.42411       -2.21658
C         -0.36105       13.82906       -0.99941
C         -1.11051       14.65342       -0.15697
F         -0.16796       12.63836       -3.02435
C         -4.10435       15.24606       -2.29122
C         -4.75652       16.21644       -1.54638
C         -5.86423       17.15659       -1.86859
C         -6.13869       17.60975       -3.11724
C         -6.94357       18.75978       -3.36212
N         -7.56143       19.71502       -3.59517
C         -5.53369       17.06766       -4.28878
N         -5.03797       16.62913       -5.24213
H         -8.33014       -1.82598        3.61325
H         -4.05618       -4.43371        3.23236
H         -8.77485       -3.43811        5.94855
H         -3.56374        0.23397        0.21920
H         -5.04184        6.52686        2.18366
H         -8.99983        9.75027        1.55364
H        -10.95029        7.44372       -0.97346
H         -9.22593        9.96668       -0.67072
H        -11.96075        9.44725       -2.02646
H        -13.06078       11.49937       -3.12539
H        -12.77674       14.00347       -3.33395
H        -12.10231       16.28469       -3.14614
H        -11.02128       18.47817       -2.49105
H         -9.06075       19.39207       -1.03703
H         -7.55409       18.57904        0.87341
H         -2.80048       16.24975        1.26245
H         -2.51950       13.51507       -3.59347
H          0.63650       13.50691       -0.71801
H         -0.67904       14.96560        0.79203
H         -4.47896       14.92435       -3.25827
