81

C         -0.09453       -8.74675       -7.41205
C          1.01164       -8.05088       -7.15325
C          1.82278       -7.35159       -8.10974
C          2.90614       -6.77218       -7.57638
C          3.03230       -6.97284       -6.14212
S          1.64858       -7.90170       -5.54425
C          4.04039       -6.55830       -5.34887
C          5.23479       -5.83069       -5.73557
C          6.11269       -5.64881       -4.73470
C          5.68402       -6.21927       -3.47135
S          4.07753       -6.88170       -3.62576
C          6.41152       -6.21563       -2.34034
C          5.96824       -6.79730       -1.11003
O          5.13579       -7.88527       -1.05030
C          4.81563       -8.19819        0.23776
C          5.52826       -7.33373        1.06504
C          6.26449       -6.44173        0.20378
C          7.15349       -5.33717        0.65962
C          5.55104       -7.30955        2.55391
C          3.87866       -9.26641        0.54025
S          2.92108       -9.21438        1.97534
C          2.10689      -10.69240        1.65380
C          2.56176      -11.23037        0.46978
C          3.55113      -10.39389       -0.19661
C          4.11881      -10.72700       -1.43704
C          3.62368      -11.94370       -1.94741
F          4.08940      -12.35683       -3.13791
C          2.66811      -12.76169       -1.28068
F          2.28684      -13.90677       -1.87227
C          2.09100      -12.44804       -0.03793
C          1.15154      -11.16110        2.60155
C         -0.13615      -10.78084        2.52295
C         -1.07583      -11.21461        3.50284
O         -0.72766      -12.04097        4.52542
C         -1.77453      -12.30216        5.36165
C         -2.87716      -11.62206        4.84598
C         -2.43018      -10.92949        3.65994
C         -3.25569      -10.06495        2.77437
C         -4.25781      -11.58570        5.40537
C         -1.65568      -13.12788        6.52438
C         -0.51570      -13.70978        6.93864
C         -0.42433      -14.53226        8.12619
C          0.81447      -14.97582        8.38672
C          1.81498      -14.53503        7.43005
S          1.04881      -13.59366        6.16855
C          3.14025      -14.77055        7.47501
C          3.83923      -15.52517        8.49857
C          5.16838      -15.56499        8.33413
C          5.62152      -14.85055        7.16930
S          4.29622      -14.16096        6.28095
C          6.89428      -14.71035        6.79188
H         -0.48739       -8.84362       -8.41793
H         -0.63897       -9.25286       -6.61868
H          1.57159       -7.31275       -9.16285
H          3.62554       -6.21136       -8.15896
H          5.40768       -5.47604       -6.74223
H          7.05837       -5.13632       -4.85029
H          7.38780       -5.74047       -2.33680
H          6.68360       -4.77633        1.47450
H          7.37326       -4.62465       -0.13996
H          8.09991       -5.74808        1.02539
H          5.80056       -8.29861        2.95006
H          4.58194       -6.99286        2.95081
H          6.29828       -6.60918        2.93720
H          4.84700      -10.14434       -1.98343
H          1.36787      -13.09601        0.43852
H          1.51099      -11.81154        3.39614
H         -0.47595      -10.12400        1.73129
H         -4.28059       -9.96643        3.14412
H         -3.30305      -10.48895        1.76634
H         -2.82770       -9.05943        2.71215
H         -4.41644      -12.34869        6.17242
H         -4.99806      -11.75973        4.61782
H         -4.45513      -10.60738        5.85575
H         -2.55589      -13.28019        7.11011
H         -1.28262      -14.75823        8.74423
H          1.04791      -15.59671        9.23915
H          3.33534      -16.00653        9.32261
H          5.84562      -16.07563        9.00361
H          7.70623      -15.14519        7.36394
H          7.16014      -14.15193        5.89947
