84

C          3.89666       -5.62422      -10.93789
S          2.42338       -4.98192      -10.35319
C          3.09460       -4.55220       -8.79171
C          4.47075       -4.70717       -8.85867
C          4.89040       -5.48665      -10.00763
C          6.17565       -6.00881      -10.20094
C          7.04272       -5.71997       -9.11201
N          8.33752       -6.40005       -9.09475
O          8.83541       -6.69467      -10.19000
O          8.81697       -6.69864       -7.99711
C          6.66858       -4.86121       -8.03931
N          7.61956       -4.48511       -7.01495
O          8.54027       -3.73502       -7.36826
O          7.38567       -4.87454       -5.86557
C          5.38984       -4.27603       -7.89995
N          2.16134       -4.21259       -7.84204
C          2.15194       -4.13933       -6.46891
S          3.44497       -3.63212       -5.47171
C          2.59280       -3.81009       -4.04106
N          3.25281       -3.57337       -2.78321
O          2.54495       -3.69517       -1.77054
O          4.44907       -3.26615       -2.78543
C          1.29167       -4.18815       -4.25475
C          1.04571       -4.40272       -5.65404
C         -0.16503       -4.97620       -6.16003
C         -1.41235       -4.51180       -5.97604
C         -2.61133       -5.20508       -6.43342
C         -2.89870       -6.51118       -6.28823
C         -4.07936       -7.17110       -6.80086
C         -4.00787       -8.51278       -6.75341
C         -2.75131       -9.00682       -6.21345
S         -1.86461       -7.67089       -5.49356
C         -2.25834      -10.25830       -6.28662
C         -2.91555      -11.42901       -6.83754
C         -2.12456      -12.51048       -6.92061
C         -0.77491      -12.26861       -6.47209
S         -0.61232      -10.67434       -5.78944
C          0.25720      -13.11957       -6.57195
N          1.56757      -12.86553       -6.22429
C          2.66791      -13.66125       -6.25756
S          4.21872      -12.88850       -6.27456
C          5.04316      -14.36427       -6.27519
N          6.47969      -14.42459       -6.26588
O          6.98181      -15.55486       -6.18068
O          7.11136      -13.36396       -6.35368
C          4.19371      -15.44167       -6.24949
C          2.81410      -15.04166       -6.24501
C          1.75292      -15.99609       -6.08043
C          1.81382      -17.23952       -6.58121
C          1.02636      -18.34309       -6.13841
S          0.72570      -19.61023       -7.29224
C          0.27099      -20.73571       -6.08779
C          0.25668      -20.15066       -4.84994
C          0.58144      -18.74285       -4.88472
C          0.62083      -17.94514       -3.72775
C          0.34010      -18.66068       -2.52952
N          0.26177      -17.85571       -1.29485
O          0.42679      -16.63244       -1.40448
O         -0.01080      -18.41985       -0.23325
C          0.10154      -20.07173       -2.52719
N          0.07635      -20.81210       -1.28528
O          1.17126      -21.02498       -0.75032
O         -1.02409      -21.25840       -0.92157
C          0.01241      -20.88473       -3.69048
H          3.94131       -6.06683      -11.92437
H          6.46405       -6.61870      -11.04964
H          5.20704       -3.53502       -7.14517
H          1.22113       -4.32266       -8.22820
H          0.57522       -4.36505       -3.45867
H         -0.02319       -5.91224       -6.69871
H         -1.57634       -3.55072       -5.49305
H         -3.33697       -4.55856       -6.92487
H         -4.91819       -6.62679       -7.21376
H         -4.78400       -9.16170       -7.13326
H         -3.95120      -11.43126       -7.14655
H         -2.44605      -13.46866       -7.30472
H          0.09770      -14.09786       -7.01384
H          1.72335      -11.87702       -6.01366
H          4.54354      -16.46695       -6.18950
H          0.93515      -15.69344       -5.43399
H          2.60973      -17.48292       -7.28418
H          0.06393      -21.76204       -6.36155
H          0.85015      -16.88856       -3.71676
H         -0.15407      -21.95559       -3.65788
