98

C         -0.00950        1.78269        2.83371
O          0.23358        1.98692        1.50154
C          0.28387        0.91978        0.66994
C          0.50111        1.07379       -0.66655
F          0.67108        2.23712       -1.24729
S          0.52514       -0.39273       -1.49929
C         -0.19009        0.61394        3.45897
S         -0.16841       -0.93944        2.70011
C          0.12442       -0.44968        1.03182
C          0.18131       -1.29927       -0.06819
C          0.05645       -2.74839       -0.13874
N          0.43191       -3.52048        0.85978
C          0.18594       -4.78748        0.42160
C         -0.32689       -4.75021       -0.92036
C         -0.62123       -6.12789       -1.37181
O         -1.03896       -6.52144       -2.44002
C         -0.28692       -6.92575       -0.17150
C          0.19675       -6.03796        0.86139
N          0.46211       -6.76009        1.98602
C          0.16023       -7.97766        1.62918
C         -0.32037       -8.17701        0.24753
C         -0.47622       -3.50120       -1.33710
C         -1.11047       -3.02490       -2.52675
C         -0.74699       -3.43675       -3.75107
C         -1.36987       -2.99153       -4.98783
C         -0.60396       -2.36322       -5.91781
C         -1.18344       -1.94280       -7.18743
C         -0.66120       -1.31680       -8.28819
C          0.76825       -0.81509       -8.54163
C          1.47816       -1.44739       -9.77310
N          1.68810       -2.89242       -9.66774
C          0.87307        0.74090       -8.63089
N          2.24248        1.23745       -8.85695
C         -1.79877       -1.22980       -9.22888
C         -1.92800       -0.71811      -10.46673
C         -3.26948       -0.69420      -11.21251
C         -4.36385       -1.51015      -10.53500
C         -4.24001       -2.02434       -9.30080
C         -2.98369       -1.84292       -8.62560
C         -2.61798       -2.24958       -7.40857
C         -3.40025       -2.92715       -6.40107
C         -2.79883       -3.26812       -5.25455
C         -3.69701        0.74808      -11.43684
C         -4.80060        1.35100      -10.95521
C         -5.07288        2.77490      -11.25422
N         -4.67534        3.39766      -12.33714
C         -5.16207        4.65343      -12.17089
C         -5.87929        4.75531      -10.92408
C         -6.35752        6.15422      -10.76403
O         -6.98908        6.65687       -9.86063
C         -5.87676        6.79757      -12.00728
C         -5.17445        5.82295      -12.80088
N         -4.72452        6.39883      -13.94637
C         -5.13546        7.63177      -13.83188
C         -5.88651        7.98061      -12.60715
C         -5.90228        3.58603      -10.29302
C         -6.44905        3.20038       -9.02382
C         -7.55903        3.72772       -8.48342
C         -8.10079        3.31053       -7.20794
O         -7.20578        3.44745       -6.16201
C         -7.60092        3.14479       -4.90692
C         -6.77224        3.30158       -3.82761
F         -5.54739        3.75369       -3.91169
S         -7.50222        2.84557       -2.36439
C         -9.36701        2.86231       -7.11420
S        -10.15805        2.33217       -5.66897
C         -8.86920        2.64262       -4.52770
C         -8.96212        2.42889       -3.16993
H         -0.03814        2.73339        3.35155
H         -0.37004        0.61926        4.52983
H          0.23153       -8.84915        2.30042
H         -0.63587       -9.08368       -0.23751
H         -1.91431       -2.30149       -2.39701
H          0.05057       -4.16698       -3.87886
H          0.44800       -2.17601       -5.74287
H          1.36922       -1.09514       -7.66409
H          2.47349       -1.00458       -9.89903
H          0.93575       -1.22958      -10.69725
H          2.18638       -3.09967       -8.80419
H          2.30895       -3.18086      -10.42466
H          0.50811        1.18507       -7.69843
H          0.25055        1.12593       -9.44505
H          2.91555        0.73419       -8.28096
H          2.30839        2.21878       -8.58521
H         -1.08002       -0.29825      -10.99160
H         -3.10560       -1.15501      -12.19528
H         -5.28779       -1.66365      -11.08525
H         -5.03403       -2.59260       -8.84391
H         -4.44411       -3.15936       -6.58097
H         -3.36445       -3.80137       -4.49096
H         -3.00832        1.33275      -12.04832
H         -5.51865        0.83003      -10.33434
H         -4.95588        8.41258      -14.58610
H         -6.30115        8.92357      -12.31355
H         -5.92310        2.40834       -8.49120
H         -8.12111        4.50817       -8.99143
H         -9.96990        2.79852       -8.01591
H         -9.80528        2.05260       -2.60659
