106

C         -4.12515        2.47560       -1.58921
S         -2.50285        2.28782       -1.10001
C         -2.13443        3.94118       -1.39994
C         -3.23842        4.60053       -1.93237
C         -4.40555        3.75882       -2.00453
C         -5.76708        4.25026       -2.42260
C         -5.78256        5.70052       -2.94698
C         -5.60907        5.72136       -4.41076
N         -5.46484        5.76792       -5.56055
C         -4.72636        6.61115       -2.28173
C         -5.10223        6.84832       -0.87489
N         -5.44987        7.03020        0.21569
C         -3.30150        6.03170       -2.38866
C         -0.83588        4.40580       -1.12635
C          0.33460        4.44190       -2.03165
N          1.42601        4.96903       -1.55125
C          1.06477        5.31029       -0.28427
C         -0.31407        4.94297       -0.02379
C         -0.64815        5.32140        1.38647
S         -2.01228        4.97868        2.26581
C          0.60408        6.01776        1.82525
C          1.59120        5.91274        0.77292
N          2.75723        6.50509        1.14808
C          2.48116        6.96160        2.33807
C          1.10381        6.72228        2.83777
C          0.54281        7.21433        4.06293
C          1.08784        6.81805        5.23849
C          0.48126        7.20543        6.50216
C          0.72420        6.82006        7.78437
C          1.70899        5.80332        8.34144
C          1.42898        4.34377        7.86211
N          1.52742        4.11830        6.41938
C          3.18902        6.19081        8.08932
N          3.57980        7.46058        8.71457
C         -0.18190        7.64605        8.60173
C         -0.36375        7.75105        9.93052
C         -1.32485        8.77355       10.54424
C         -2.11958        9.57217        9.51764
C         -1.96627        9.43234        8.19049
C         -0.98389        8.49584        7.72103
C         -0.61453        8.19413        6.46960
C         -1.13298        8.64854        5.20502
C         -0.59527        8.15469        4.07361
C         -2.27984        8.10670       11.50742
C         -2.40430        8.45497       12.80116
C         -3.32738        7.86074       13.70766
C         -3.84795        6.46672       13.69815
N         -4.66443        6.12951       14.66125
C         -4.74739        7.27582       15.38990
C         -3.93512        8.31750       14.81152
C         -4.07084        9.55667       15.63622
S         -3.42782       11.06352       15.36868
C         -4.98255        9.09768       16.73243
C         -5.34501        7.71635       16.48219
N         -6.18464        7.25309       17.45254
C         -6.30713        8.27750       18.24496
C         -5.57211        9.50126       17.85451
C         -5.51632       10.72550       18.53633
S         -4.27954       10.97727       19.70319
C         -4.81587       12.55697       20.04734
C         -5.95311       12.88875       19.34474
C         -6.36572       11.82310       18.46919
C         -7.60045       11.93570       17.61447
C         -8.09032       13.38865       17.45224
C         -7.29911       14.08604       16.42130
N         -6.68932       14.65859       15.61826
C         -8.05897       14.18783       18.77461
C         -9.05757       13.64558       19.71350
N         -9.85795       13.20569       20.43379
C         -6.66614       14.20800       19.43264
H         -4.80532        1.63530       -1.53292
H         -6.41519        4.19828       -1.53666
H         -6.19847        3.56308       -3.16219
H         -6.78447        6.11066       -2.75007
H         -4.72376        7.58884       -2.78376
H         -2.58969        6.65192       -1.83245
H         -2.98415        6.05316       -3.44063
H          0.24549        4.03387       -3.05071
H          3.19771        7.50686        2.97227
H          1.95580        6.16935        5.25013
H          1.58545        5.76198        9.43333
H          0.42567        4.03994        8.18202
H          2.13712        3.66247        8.34828
H          0.72523        4.58508        5.98966
H          1.38110        3.13493        6.19900
H          3.39866        6.25301        7.01788
H          3.84559        5.41210        8.49537
H          2.94035        8.19762        8.41554
H          4.49849        7.72999        8.36167
H          0.21118        7.14453       10.62254
H         -0.70524        9.49738       11.09132
H         -2.83228       10.30352        9.89135
H         -2.53702       10.02443        7.48521
H         -1.96406        9.34231        5.17690
H         -0.99254        8.46880        3.11264
H         -2.93114        7.34858       11.07677
H         -1.78629        9.25963       13.19957
H         -3.52642        5.77791       12.90525
H         -6.91654        8.27952       19.16219
H         -4.27224       13.16867       20.75634
H         -8.38986       11.34525       18.09847
H         -7.42308       11.48181       16.63163
H         -9.12553       13.34736       17.08415
H         -8.34408       15.23054       18.57324
H         -6.73861       14.52051       20.48281
H         -6.04158       14.95581       18.92645
