94

C        -16.57712       -5.51457        0.30978
C        -16.76373       -5.64977        1.68972
C        -15.81199       -6.30091        2.48409
C        -14.67351       -6.86633        1.90981
C        -14.51022       -6.77875        0.53400
C        -15.44391       -6.07057       -0.27258
C        -14.90118       -5.99994       -1.67424
C        -15.59909       -5.78175       -2.81132
C        -17.00748       -5.56922       -2.81629
N        -18.15563       -5.40727       -2.81813
C        -14.98476       -5.84587       -4.09088
N        -14.46506       -5.88101       -5.13125
C        -13.47402       -6.42527       -1.55814
C        -13.42510       -7.28097       -0.35210
C        -12.76444       -8.45597       -0.21480
C        -11.98172       -8.99610       -1.27549
N        -11.34245       -9.41157       -2.15345
C        -12.87249       -9.25642        0.94959
N        -12.95683       -9.89921        1.91403
C        -12.42303       -5.89500       -2.21844
C        -11.02113       -6.05341       -1.92079
C        -10.37460       -6.19837       -0.58431
N         -9.07482       -6.17096       -0.53657
C         -8.73973       -5.96266       -1.83349
C         -9.92067       -5.93663       -2.66793
C         -9.49720       -5.69354       -4.07660
S        -10.35119       -5.97054       -5.47247
C         -8.07202       -5.27248       -3.89356
C         -7.67530       -5.58907       -2.53623
N         -6.38736       -5.22472       -2.30459
C         -6.05246       -4.64656       -3.42463
C         -7.09616       -4.58396       -4.48240
C         -7.07023       -3.80633       -5.65314
N         -8.23388       -3.60739       -6.36958
C         -7.97517       -2.73194       -7.38362
C         -8.59366       -2.04867       -8.45623
C         -7.58529       -1.28335       -9.02246
N         -6.39893       -1.54529       -8.36552
C         -6.66452       -2.40819       -7.34097
C         -6.05340       -3.07520       -6.25352
C         -7.60953       -0.39014      -10.12416
C         -6.77734        0.65763      -10.21336
C         -6.72232        1.57547      -11.30782
C         -7.43672        1.52715      -12.61167
N         -7.07871        2.39983      -13.51298
C         -6.07699        3.07384      -12.89310
C         -5.92244        2.61661      -11.53520
C         -4.80736        3.37176      -10.89638
S         -4.49987        3.58785       -9.27933
C         -4.14134        3.97185      -12.09513
C         -5.06888        3.88032      -13.20994
N         -4.54555        4.44781      -14.32373
C         -3.33593        4.74004      -13.94549
C         -2.95692        4.38882      -12.53961
C         -1.61117        4.49555      -12.05705
C         -0.89787        3.73614      -11.19949
C          0.47290        4.09028      -10.73835
C          1.53965        4.36179      -11.52555
C          1.41517        4.42594      -12.94551
N          1.27049        4.48011      -14.09310
C          2.85611        4.46836      -11.00817
N          3.93658        4.54292      -10.58074
C          0.47855        3.79854       -9.27271
C         -0.64405        2.97430       -8.98326
C         -0.96802        2.65759       -7.67068
C         -0.13807        3.12026       -6.64687
C          0.98807        3.90286       -6.93487
C          1.29510        4.26108       -8.25016
C         -1.33371        2.66776      -10.27544
C         -1.95763        1.50576      -10.57433
C         -2.23019        0.50455       -9.59877
N         -2.49985       -0.30584       -8.81096
C         -2.34428        1.19021      -11.90611
N         -2.68779        0.94547      -12.98552
H        -17.31777       -4.95647       -0.25314
H        -17.64876       -5.22206        2.15874
H        -15.95868       -6.35893        3.56125
H        -13.94102       -7.33954        2.55715
H        -12.60057       -5.18587       -3.02860
H        -10.99397       -6.31247        0.31435
H         -5.06231       -4.20393       -3.61102
H         -9.15350       -4.00722       -6.21355
H         -9.63054       -2.08814       -8.76256
H         -5.47060       -1.19173       -8.56410
H         -5.02067       -3.00441       -5.94023
H         -8.36588       -0.57387      -10.88325
H         -6.06017        0.84186       -9.41680
H         -8.21626        0.77012      -12.77870
H         -2.58998        5.21545      -14.60152
H         -1.10605        5.34518      -12.52179
H         -1.85875        2.09544       -7.40742
H         -0.37748        2.88486       -5.61114
H          1.61662        4.25686       -6.11937
H          2.14477        4.91222       -8.42780
