156

C         -4.58375       10.90569       12.98499
C         -3.48396       10.19761       13.32609
C         -3.48899        8.77774       13.40912
N         -3.48484        7.61813       13.42277
C         -2.24894       10.84213       13.64317
N         -1.23450       11.35944       13.86201
C         -5.97172       10.41818       13.10806
C         -6.74398       11.48317       13.60268
C         -8.06921       11.33496       13.96656
C         -8.66954       10.08451       13.75459
C         -7.92772        9.03050       13.14092
C         -6.56892        9.20264       12.83100
C         -8.56787        7.81951       12.84889
C         -9.90597        7.62410       13.18786
C        -10.61707        8.63243       13.83285
C        -10.00588        9.85671       14.11023
C         -5.96228       12.74391       13.54212
O         -6.32678       13.84885       13.88285
C         -4.68168       12.35653       12.85384
C         -4.16393       13.21160       11.95498
C         -3.39234       12.81704       10.81311
S         -3.52286       13.75604        9.37798
C         -2.54848       11.75167       10.55152
C         -2.04204       11.64502        9.21592
C         -1.13279       10.71715        8.60464
C         -0.34700        9.75100        9.49426
C         -0.60717        8.25146        9.38862
C         -0.91348       10.80946        7.17305
C          0.06142        9.89802        6.44298
C          1.47361       10.45432        6.33105
C         -2.61461       12.64349        8.46238
C         -2.43859       12.69347        7.08172
S         -3.20047       13.81864        6.06813
C         -1.63471       11.78871        6.41353
C         -1.70740       12.05193        5.00022
C         -2.56178       13.08691        4.66741
C         -2.95575       13.60616        3.41167
C         -2.99853       12.83189        2.32145
C         -3.40770       13.32701        1.02853
C         -4.65780       13.83445        0.88542
C         -5.14120       14.17079       -0.43098
C         -6.37284       14.55120       -0.86214
C         -7.62465       14.95838       -0.10108
C         -8.55316       13.74876        0.17643
N         -7.94712       12.69628        0.99558
C         -7.37830       15.75767        1.21067
N         -6.63278       17.00409        1.00434
C         -6.28835       14.40374       -2.31872
C         -7.24380       14.28487       -3.25029
C         -6.91483       13.92718       -4.70388
C         -5.42458       13.88689       -5.01901
C         -4.47643       13.99539       -4.07654
C         -4.91318       14.13609       -2.71862
C         -4.23830       13.95935       -1.58103
C         -2.87679       13.54951       -1.37909
C         -2.50120       13.23142       -0.12920
C         -7.60282       14.81769       -5.69534
C         -8.39226       15.85104       -5.38018
C         -9.01625       16.62765       -6.37316
S         -9.40327       18.23741       -5.99014
C         -9.40869       16.31064       -7.65783
C        -10.03163       17.40120       -8.35090
C        -10.58377       17.50969       -9.66220
C        -10.57677       16.27727      -10.55924
C         -9.31234       16.16578      -11.40293
C        -11.12541       18.78180      -10.11271
C        -11.72603       18.86794      -11.51892
C        -11.63597       20.20319      -12.24992
C        -10.06954       18.50377       -7.52238
C        -10.62023       19.71496       -7.92776
S        -10.70481       21.09842       -6.93461
C        -11.14963       19.88275       -9.19254
C        -11.64012       21.22211       -9.27808
C        -11.45668       22.00835       -8.15571
C        -11.82260       23.36074       -7.92138
C        -12.43839       24.05645       -8.88523
C        -12.92470       25.39696       -8.71150
C        -13.92529       25.94679       -9.41823
C        -14.45523       27.31995       -9.36044
C        -14.41892       28.15842       -8.29518
C        -15.03546       29.43813       -8.31219
N        -15.53247       30.48648       -8.32643
C        -13.81438       27.81589       -7.04634
N        -13.32314       27.54437       -6.03896
C        -15.20185       27.53237      -10.63996
C        -15.34485       26.29613      -11.28254
C        -14.64055       25.24381      -10.54504
O        -14.65082       24.07458      -10.84330
C        -16.00360       26.11346      -12.48989
C        -16.53864       27.24576      -13.11961
C        -16.38541       28.51860      -12.51165
C        -15.71654       28.65205      -11.26875
C        -16.90773       29.64281      -13.17276
C        -17.56882       29.51197      -14.39576
C        -17.71945       28.25972      -14.98194
C        -17.20406       27.12662      -14.34434
H         -8.62354       12.17732       14.37046
H         -6.01302        8.39374       12.36523
H         -8.03085        7.01502       12.34966
H        -10.39111        6.68030       12.95181
H        -11.65488        8.46910       14.11223
H        -10.58661       10.63260       14.60501
H         -4.53758       14.23967       11.96108
H         -2.28612       11.00141       11.26224
H         -0.54246        9.99851       10.54541
H          0.72092        9.95664        9.36814
H         -1.61822        7.98595        9.71039
H          0.09810        7.72125       10.04167
H         -0.46482        7.84724        8.38851
H         -0.31256        9.71279        5.42861
H          0.09966        8.90813        6.88613
H          1.51302       11.29446        5.62998
H          2.14616        9.67739        5.94863
H          1.86285       10.79370        7.29512
H         -1.16957       11.47935        4.25520
H         -3.26112       14.64941        3.35082
H         -2.73497       11.77457        2.35116
H         -5.33818       13.85580        1.72630
H         -8.19420       15.64263       -0.74961
H         -8.87909       13.30936       -0.77265
H         -9.46083       14.09409        0.68677
H         -7.04700       12.43659        0.58867
H         -8.51975       11.85493        0.93143
H         -6.85924       15.15683        1.95906
H         -8.34049       16.01945        1.66663
H         -5.75979       16.80185        0.51557
H         -6.36160       17.38284        1.91164
H         -8.29018       14.36631       -2.97590
H         -7.30088       12.91309       -4.87206
H         -5.12194       13.73793       -6.05202
H         -3.42087       13.95164       -4.31449
H         -2.20072       13.46493       -2.21720
H         -1.49023       12.88077        0.05881
H         -7.41662       14.57597       -6.74018
H         -8.56064       16.14099       -4.34699
H         -9.26515       15.32617       -8.08434
H        -11.47158       16.23483      -11.18869
H        -10.64866       15.37958       -9.93191
H         -9.31778       16.88567      -12.22665
H         -9.23812       15.16373      -11.83954
H         -8.40799       16.34181      -10.81093
H        -12.77520       18.55433      -11.46224
H        -11.21378       18.16064      -12.17586
H        -12.37119       20.91791      -11.88027
H        -11.88258       20.07800      -13.30827
H        -10.63363       20.63735      -12.17618
H        -12.12660       21.62747      -10.14352
H        -11.64644       23.79519       -6.93999
H        -12.62065       23.60929       -9.85511
H        -12.38363       25.95581       -7.95417
H        -16.07117       25.12599      -12.93093
H        -15.59529       29.64879      -10.86051
H        -16.80497       30.63550      -12.73786
H        -17.96783       30.39404      -14.89196
H        -18.23389       28.16023      -15.93319
H        -17.32792       26.15650      -14.82360
