102

C          1.15615        0.31563       -1.10195
C          2.43234       -0.12332       -1.06727
C          2.80511       -1.38650       -1.61285
N          3.09201       -2.40954       -2.07273
C          3.45970        0.61583       -0.41200
N          4.30070        1.22011        0.11134
C         -0.02962       -0.41732       -1.59542
C         -1.13925       -0.00730       -0.83786
C         -2.43032       -0.42308       -1.10612
C         -2.64299       -1.14125       -2.28962
C         -1.54097       -1.47260       -3.13544
C         -0.22483       -1.15443       -2.75115
C         -1.79498       -2.04603       -4.38908
C         -3.10292       -2.29352       -4.80825
C         -4.17297       -2.00929       -3.96457
C         -3.94464       -1.44833       -2.70751
C         -0.77182        1.17662       -0.02249
O         -1.47806        1.79889        0.74183
C          0.60814        1.53352       -0.49884
C          1.04310        2.78047       -0.74983
C          0.29703        4.02761       -0.53087
C          0.37360        4.73156        0.66640
C          1.10492        4.31107        1.86772
O          1.62572        3.22224        2.02365
S          1.11974        5.56449        3.07673
C          0.31753        6.67752        1.99571
O          0.34699        7.88085        2.16832
C         -0.22255        5.98727        0.80643
C         -1.10719        6.51829       -0.16096
C         -1.21776        5.79071       -1.35856
C         -0.45800        4.62821       -1.55340
C         -0.45563        4.21354       -2.95958
O          0.42253        3.54417       -3.47314
S         -1.76030        4.94157       -3.84384
C         -2.04352        6.08739       -2.55288
O         -2.82635        7.00934       -2.68802
C         -1.88949        7.72458        0.14286
N         -2.29386        8.65558       -0.79964
C         -3.03920        9.61216       -0.17604
C         -3.83193       10.75527       -0.41945
C         -4.32187       11.10823        0.83062
N         -3.79294       10.28451        1.78730
C         -3.07131        9.32979        1.14226
C         -2.38264        8.13040        1.37913
C         -5.29726       12.05216        1.20627
C         -5.24439       12.79140        2.32801
C         -6.23150       13.85228        2.62266
C         -6.65070       14.14561        3.94550
C         -6.22435       13.50491        5.20790
O         -5.56996       12.48350        5.29582
S         -6.84025       14.35085        6.61567
C         -7.88110       15.34163        5.63351
O         -8.71052       16.10722        6.08987
C         -7.62137       15.11973        4.20194
C         -8.26577       15.79811        3.16770
C         -7.83224       15.55034        1.86431
C         -6.80107       14.64591        1.59681
C         -6.43171       14.71500        0.16041
O         -5.39462       14.33334       -0.34394
S         -7.65212       15.53427       -0.78377
C         -8.38018       16.18348        0.65519
O         -9.23789       17.03830        0.63708
C         -9.34319       16.75043        3.41844
C         -9.16672       18.06490        3.60744
C        -10.17441       19.12028        3.82058
C        -11.47362       19.08980        3.43672
C        -12.33987       20.21578        3.57854
N        -13.05104       21.12106        3.69400
C        -12.08726       17.95923        2.81893
N        -12.60228       17.02291        2.34390
C         -9.42932       20.29439        4.36877
C         -8.05115       20.05254        4.26642
C         -7.80963       18.68873        3.75349
O         -6.72724       18.17760        3.55365
C         -7.08222       20.96715        4.65564
C         -7.50439       22.19125        5.19421
C         -8.89450       22.44468        5.35235
C         -9.84488       21.48532        4.94927
C         -9.30766       23.66203        5.91466
C         -8.37501       24.62462        6.29975
C         -7.01490       24.38262        6.13425
C         -6.58110       23.17263        5.58913
H         -3.25620       -0.08059       -0.48948
H          0.60235       -1.37548       -3.42128
H         -0.97792       -2.26523       -5.07425
H         -3.28631       -2.69888       -5.80048
H         -5.19061       -2.20240       -4.29523
H         -4.79977       -1.21209       -2.07735
H          1.97252        2.92843       -1.29767
H         -2.19885        8.61144       -1.81030
H         -4.06108       11.21916       -1.37093
H         -3.95933       10.28742        2.78478
H         -2.27113        7.64428        2.33750
H         -6.07697       12.18537        0.46357
H         -4.44658       12.64134        3.05335
H        -10.32188       16.28313        3.41560
H         -6.02786       20.72573        4.55069
H        -10.89513       21.70264        5.11555
H        -10.36647       23.87612        6.05154
H         -8.71425       25.56730        6.72492
H         -6.29116       25.13820        6.43043
H         -5.51190       23.00626        5.47451
