62

C          1.35044       -0.46003       -3.34654
S          2.02595       -1.99702       -3.02803
C          0.49973       -2.44964       -2.36437
N         -0.39612       -1.48114       -2.40232
N          0.09717       -0.32317       -2.97486
C          0.20241       -3.74827       -1.80998
S          1.34233       -5.02463       -1.77558
C          0.26096       -6.10101       -0.98990
C         -0.96891       -5.50486       -0.78254
C         -0.99730       -4.15163       -1.24922
C         -2.07851       -6.16792       -0.16493
N         -2.98239       -6.70141        0.33759
C          0.72763       -7.40875       -0.69168
C          1.35124       -7.65182        0.47563
C          1.95067       -8.90877        0.83472
N          2.06189       -9.37037        2.15119
C          1.54058       -8.75266        3.35645
C          2.55543       -7.88066        4.08367
C          2.71666      -10.62080        2.20947
O          2.96565      -11.31889        3.17038
C          3.03848      -10.89383        0.79655
C          2.53694       -9.79457        0.01909
C          2.86181      -10.05937       -1.39269
O          2.61116       -9.36293       -2.35465
N          3.52215      -11.30270       -1.33685
C          4.03343      -11.92379       -2.54318
C          2.99555      -12.78523       -3.24724
C          3.62253      -11.77394       -0.02311
C          4.23916      -13.02894        0.31342
C          4.90119      -13.26851        1.45817
C          5.51466      -14.52341        1.73738
S          6.30691      -14.75954        3.23498
C          6.78800      -16.38169        2.86484
C          7.54261      -17.04655        3.92051
O          7.48422      -16.77071        5.11403
O          8.42547      -17.98003        3.49230
C          6.33618      -16.73511        1.59906
C          5.60482      -15.66972        0.97701
C          6.55558      -18.05426        0.90979
S          5.95240      -18.44370       -0.65963
C          6.80658      -19.92077       -0.54241
N          7.44553      -20.09032        0.59367
N          7.29147      -19.01033        1.43598
H          1.91266        0.33459       -3.81621
H         -1.86307       -3.50065       -1.17599
H          0.61661       -8.16497       -1.46411
H          1.45588       -6.85032        1.20272
H          1.24258       -9.55883        4.03734
H          0.63681       -8.18123        3.12380
H          3.50930       -8.39857        4.22847
H          2.17004       -7.60497        5.07207
H          2.75251       -6.95618        3.53241
H          4.93393      -12.50321       -2.31689
H          4.33399      -11.12369       -3.23089
H          2.69805      -13.63669       -2.62775
H          3.40175      -13.17303       -4.18765
H          2.09385      -12.20961       -3.48221
H          4.14286      -13.80357       -0.44015
H          4.98897      -12.48998        2.21481
H          8.34253      -18.25187        2.55480
H          5.16486      -15.74002       -0.00948
H          6.82514      -20.65039       -1.34044
