91

C         10.75752       -4.19159        5.97685
C         11.23175       -5.32076        6.58967
S         10.15469       -5.80946        7.85548
C          9.09012       -4.51244        7.54782
Cl         7.65155       -4.36338        8.46566
C          9.53225       -3.73084        6.52359
C          9.02227       -2.56920        5.84699
O          8.08309       -1.86308        6.15701
C          9.97909       -2.43794        4.65846
C         11.16498       -3.33207        4.89258
C         12.38414       -3.27114        4.31114
C         13.43854       -4.15705        4.67602
N         14.29196       -4.88240        4.97534
C         12.71954       -2.27999        3.34725
N         12.98099       -1.46221        2.56703
C          9.63286       -1.79509        3.52661
C          8.35251       -1.12050        3.31154
C          7.26168       -1.84663        2.75950
N          7.28713       -3.12649        2.34291
S          5.77629       -3.46300        1.75317
N          5.01478       -2.01891        2.01891
C          5.89566       -1.20147        2.62370
C          5.66032        0.11770        3.12000
C          6.82180        0.81025        3.54127
C          8.11054        0.22524        3.62351
C          4.30430        0.66611        3.25327
N          3.18459       -0.04362        3.74568
C          3.17143       -1.33831        4.40205
C          2.25028       -2.34239        3.72157
C          2.04011        0.77565        3.82700
O          0.92459        0.53713        4.24241
C          2.54488        2.06790        3.37034
C          3.93771        1.94296        3.04799
C          4.40529        3.30113        2.67917
O          5.53956        3.62686        2.39173
N          3.23796        4.09669        2.80170
C          3.24715        5.53848        2.62269
C          3.66737        5.97248        1.22826
C          2.15474        3.33155        3.22832
C          0.82364        3.79822        3.47728
C          0.47348        4.74408        4.36380
C         -0.92637        5.13202        4.57903
C         -1.34813        5.56020        5.83858
C         -2.69424        5.92101        6.03443
N         -3.06698        6.34557        7.37142
O         -2.89482        5.53002        8.28693
O         -3.51871        7.49032        7.50185
C         -3.64892        5.87835        5.00121
C         -3.19447        5.45275        3.74553
C         -1.85710        5.10840        3.53398
C         -5.08813        6.16264        5.18866
C         -5.88390        6.65068        4.22305
C         -7.29046        6.91602        4.41164
C         -8.24606        6.04074        4.75976
C         -9.54834        6.63186        5.27510
O         -9.99994        7.74487        5.08679
C        -10.05192        5.56615        6.09765
C        -11.11260        5.42586        6.93995
S        -11.12693        3.88858        7.68065
C         -9.69619        3.38564        6.84109
C         -9.25689        4.39111        6.02236
C         -8.21546        4.57944        5.04726
C         -7.53986        3.61717        4.38291
C         -7.60727        2.24586        4.77052
N         -7.65049        1.13707        5.10180
C         -6.82540        3.87939        3.17775
N         -6.28029        4.08000        2.17225
Cl       -12.34206        6.55900        7.30593
H         12.11602       -5.91422        6.39748
H         10.23894       -1.83641        2.62703
H          6.73674        1.85156        3.85723
H          8.93188        0.84584        3.98240
H          2.81005       -1.17910        5.42558
H          4.17918       -1.74438        4.50270
H          1.19984       -2.05731        3.83691
H          2.37527       -3.33239        4.17118
H          2.44967       -2.42069        2.64935
H          3.93654        5.96080        3.36250
H          2.25674        5.95639        2.81989
H          4.72037        5.74487        1.04016
H          3.53656        7.05427        1.11832
H          3.06694        5.47343        0.46155
H          0.05723        3.24294        2.93684
H          1.22246        5.23650        4.97890
H         -0.64625        5.59743        6.67032
H         -3.87045        5.36143        2.89717
H         -1.56468        4.80720        2.52942
H         -5.49265        5.96749        6.17975
H         -5.49326        6.92703        3.24413
H         -7.54754        7.97232        4.30144
H         -9.30685        2.39150        7.01297
