74

C          0.59362        0.94034       -0.56976
S          0.62756       -0.62311       -1.21464
C         -0.18834       -1.31670        0.15312
C         -0.51323       -0.31857        1.08522
C         -0.02530        0.97041        0.65320
C         -1.20793       -0.53803        2.37308
O         -1.07369       -1.61043        2.96760
C         -2.09214        0.58118        2.94924
F         -2.16429        1.70466        2.17922
F         -3.38323        0.17471        3.11496
F         -1.66331        0.99963        4.17365
C         -0.44142       -2.77728        0.10597
C          0.40731       -3.67806       -0.52301
N          0.21318       -5.01616       -0.60081
C         -0.89336       -5.49660       -0.01342
N         -1.81250       -4.72442        0.58283
C         -1.55951       -3.39234        0.63594
C         -1.11281       -6.95104       -0.02984
N         -0.69433       -7.83862       -1.03858
C          0.04888       -7.51397       -2.23920
C          1.54887       -7.65373       -2.03498
C         -1.05121       -9.16275       -0.74672
O         -0.82935      -10.17785       -1.38106
C         -1.77458       -9.03865        0.52973
C         -1.75083       -7.64989        0.91603
C         -2.45066       -7.53909        2.20969
O         -2.62008       -6.54966        2.89277
N         -2.86624       -8.86788        2.45600
C         -3.64547       -9.21695        3.62866
C         -2.77725       -9.57658        4.82375
C         -2.46078       -9.73724        1.43796
C         -2.78469      -11.13972        1.43630
C         -2.98384      -11.86777        0.32579
C         -3.39931      -13.26549        0.32500
N         -3.00996      -14.00616       -0.72298
C         -3.43610      -15.27866       -0.73752
C         -4.25785      -15.81214        0.22633
C         -4.62290      -14.96057        1.24915
N         -4.19109      -13.68717        1.32297
C         -5.51779      -15.42737        2.31800
C         -5.96529      -14.63076        3.30325
C         -6.83703      -15.11415        4.31861
S         -7.93301      -14.02873        5.07620
C         -8.60470      -15.26085        6.05002
C         -8.01751      -16.49186        5.83913
C         -6.96743      -16.37986        4.86277
C         -8.37449      -17.74517        6.51917
O         -7.50998      -18.61621        6.66181
C         -9.81586      -17.97025        6.98076
F        -10.67560      -16.95832        6.67164
F        -10.35589      -19.09073        6.42007
F         -9.90665      -18.13839        8.32990
H          1.03088        1.76940       -1.11037
H         -0.11429        1.89434        1.21460
H          1.32114       -3.35679       -1.01704
H         -2.34205       -2.83068        1.13645
H         -0.22169       -6.51694       -2.59852
H         -0.25501       -8.21719       -3.02500
H          1.90326       -7.02833       -1.21058
H          2.08629       -7.36453       -2.94321
H          1.81443       -8.68964       -1.79839
H         -4.32855      -10.03848        3.38802
H         -4.26698       -8.35422        3.89284
H         -2.13287      -10.43448        4.60680
H         -3.40584       -9.83178        5.68312
H         -2.13385       -8.73845        5.11128
H         -2.90208      -11.61865        2.40560
H         -2.85668      -11.45568       -0.66918
H         -3.08827      -15.87276       -1.57737
H         -4.59163      -16.83900        0.16949
H         -5.82382      -16.46707        2.25778
H         -5.68709      -13.57846        3.32522
H         -9.39694      -14.99429        6.73717
H         -6.34734      -17.21892        4.56355
