100

C         -4.23064        6.54893       -2.53378
O         -4.99974        6.56461       -3.65409
C         -4.85225        5.35241       -4.24884
C         -3.99244        4.56009       -3.52297
C         -3.58185        5.34075       -2.41302
C         -2.70167        5.00218       -1.34687
C         -1.70954        4.10164       -1.42471
C         -0.86481        3.77888       -0.29694
C         -0.13697        2.65277       -0.23941
C          0.68291        2.26178        0.89539
C          1.78107        1.46395        0.82613
O          2.51092        1.10795        1.97304
C          2.06110        1.60371        3.14175
C          0.92960        2.43259        3.21502
C          0.63900        2.82931        4.49440
S          1.77486        2.17033        5.61042
C          2.63985        1.36257        4.36029
O          0.22168        2.78137        2.11884
C          2.35272        0.91501       -0.39568
C          3.66469        0.65175       -0.50830
C          4.25297        0.16957       -1.71046
O          3.52101       -0.10183       -2.85296
C          4.35797       -0.56869       -3.80684
C          5.64140       -0.61547       -3.33384
C          5.58592       -0.13721       -1.99688
C          6.73361       -0.05804       -1.14637
C          7.00309        0.87207       -0.21867
C          8.24636        0.85899        0.52028
C          8.77852        1.97297        1.03848
C         10.07515        1.97537        1.71413
C         10.07857        1.76462        3.10645
C         11.27314        1.75170        3.84151
C         12.48727        1.97254        3.20743
C         12.48533        2.21230        1.84085
C         11.30706        2.16834        1.08458
N         11.66346        2.28569       -0.27381
C         10.77002        2.24594       -1.39976
C         13.05676        2.28014       -0.42826
O         13.68090        2.17117       -1.47438
C         13.68027        2.48920        0.95838
C         14.31603        3.89876        1.07479
C         14.28399        4.43100        2.52565
O         14.90085        3.95663        3.46908
N         13.42065        5.53126        2.55421
C         13.09403        6.28343        3.73843
C         13.04231        5.90448        1.26176
C         12.29376        6.99097        0.84852
C         12.12581        7.20354       -0.53195
C         12.76461        6.34853       -1.44893
C         13.51249        5.25664       -1.01296
C         13.60405        5.01850        0.34915
C         11.34890        8.36960       -0.97947
C         10.64409        8.43244       -2.12068
C          9.89028        9.60336       -2.47922
S          9.12764       10.56289       -1.25752
C          8.51064       11.65490       -2.38111
N          7.76092       12.80274       -1.94592
O          7.33238       13.54565       -2.84030
O          7.59799       12.97663       -0.73435
C          8.80454       11.30871       -3.67687
C          9.59176       10.11121       -3.74636
C         10.05562        9.52976       -4.97731
C          9.43956        9.63941       -6.16323
H         -4.24306        7.45797       -1.94876
H         -5.41609        5.20809       -5.15969
H         -3.71405        3.54406       -3.76436
H         -2.87222        5.51117       -0.39914
H         -1.51378        3.58064       -2.35962
H         -0.83877        4.49204        0.52523
H         -0.17909        1.95499       -1.07160
H         -0.16798        3.46080        4.83676
H          3.51088        0.76309        4.58378
H          1.69162        0.74960       -1.24046
H          4.31645        0.83374        0.33611
H          3.90051       -0.82495       -4.75083
H          6.51243       -0.94745       -3.88092
H          7.50160       -0.80442       -1.34390
H          6.32339        1.70015       -0.02904
H          8.77191       -0.09159        0.60243
H          8.28754        2.93862        0.95610
H          9.14376        1.59334        3.63704
H         11.25195        1.57051        4.91440
H         13.41425        1.95538        3.77625
H          9.93901        2.94108       -1.25683
H         10.41094        1.22511       -1.54929
H         11.30399        2.55326       -2.30612
H         14.42622        1.70429        1.12672
H         15.35998        3.88272        0.74026
H         13.46812        5.77362        4.63079
H         12.00744        6.38507        3.81996
H         13.55552        7.27344        3.67792
H         11.85127        7.66873        1.57226
H         12.70139        6.53104       -2.51945
H         14.00807        4.61625       -1.73610
H         11.37644        9.20757       -0.28749
H         10.61280        7.60152       -2.81566
H          8.48648       11.88991       -4.53467
H         10.97736        8.95129       -4.94689
H          8.50525       10.17825       -6.28810
H          9.85510        9.17167       -7.05106
