82

C         -0.29670        1.67687       -4.69659
S         -0.35809        3.16933       -3.88803
C          1.17897        2.92738       -3.14680
C          1.71501        1.69572       -3.50725
C          0.85663        0.97969       -4.41784
C          1.19189       -0.37584       -4.95365
C          2.66306       -0.73819       -4.76942
F          2.77744       -2.08905       -4.93968
C          3.17496       -0.36734       -3.37793
F          4.49810       -0.69736       -3.29586
C          3.04716        1.13124       -3.08962
C          1.74506        3.92677       -2.27369
S          1.45575        5.60722       -2.46030
C          2.47297        5.87946       -1.09271
N          2.96540        4.76524       -0.58549
N          2.55188        3.63862       -1.27328
C          2.66758        7.21541       -0.65977
C          3.47060        7.52370        0.37001
C          3.66793        8.87520        0.82586
N          3.92172        9.20580        2.16102
C          4.07950        8.27925        3.26494
C          5.53549        7.88793        3.46778
C          4.08833       10.59670        2.33128
O          4.30889       11.24084        3.33475
C          3.92501       11.11014        0.96031
C          3.67661        9.99366        0.09115
C          3.52952       10.51882       -1.28253
O          3.28215        9.89199       -2.29213
N          3.72480       11.90267       -1.10966
C          3.65212       12.83508       -2.21754
C          2.24394       13.35529       -2.45935
C          3.94254       12.22387        0.22851
C          4.18536       13.55548        0.68367
C          3.44804       14.14979        1.63298
C          3.74063       15.47766        2.02558
S          2.47201       16.47099        2.62006
C          3.62830       17.74533        2.79418
N          4.84200       17.39907        2.41976
N          4.90208       16.09966        1.96253
C          3.17036       18.98126        3.30958
C          3.98573       20.03087        3.51461
C          3.50464       21.26660        4.07055
S          1.84798       21.46430        4.54544
C          2.08210       23.04974        5.07741
C          3.37999       23.46812        4.91544
C          4.20916       22.44244        4.32829
C          5.67610       22.68668        4.08822
C          6.03889       24.17629        4.10706
F          7.39779       24.27506        4.20663
C          5.40533       24.90936        5.28957
F          5.74438       26.23137        5.22839
C          3.88321       24.82655        5.26504
H         -1.11636        1.37667       -5.33569
H          0.93516       -0.44063       -6.01782
H          0.56802       -1.11975       -4.44216
H          3.28492       -0.26379       -5.53687
H          2.64892       -0.95682       -2.61841
H          3.84234        1.66932       -3.62197
H          3.22753        1.28934       -2.02125
H          2.13661        7.99471       -1.19850
H          3.99492        6.73433        0.90479
H          3.45937        7.39236        3.09984
H          3.71277        8.76343        4.17745
H          5.95078        7.42369        2.56743
H          5.62829        7.17666        4.29416
H          6.14852        8.76476        3.70213
H          3.99363       12.31533       -3.11986
H          4.34262       13.66635       -2.04483
H          1.55396       12.53765       -2.69261
H          2.24095       14.05231       -3.30424
H          1.85579       13.88260       -1.58224
H          5.00284       14.09141        0.20526
H          2.60792       13.63923        2.09514
H          2.11320       19.02977        3.54204
H          5.04091       19.95250        3.26813
H          1.24901       23.60770        5.48142
H          5.99503       22.26047        3.12970
H          6.25698       22.16891        4.86357
H          5.74959       24.66220        3.16818
H          5.80503       24.51740        6.23143
H          3.49027       25.54275        4.53222
H          3.48791       25.13773        6.23950
