106

C          9.27277       -1.97698       -1.48983
C         10.53222       -2.61607       -1.39736
C         11.63191       -2.17848       -2.33277
C         10.72410       -3.70367       -0.50189
C         12.00391       -4.49885       -0.48895
C          9.67687       -4.10482        0.33731
C          8.46014       -3.45652        0.21589
C          8.22759       -2.40702       -0.68614
C          6.77528       -2.07807       -0.64473
C          6.17527       -0.91800       -0.99460
C          6.90820        0.18709       -1.50598
N          7.50831        1.08805       -1.92495
C          4.77860       -0.70481       -0.80545
N          3.63392       -0.56238       -0.65743
C          6.13074       -3.21975        0.02469
C          7.19995       -3.86315        0.85859
O          7.08043       -4.52928        1.86396
C          4.95550       -3.79214       -0.28130
C          4.59464       -5.07816        0.18885
S          5.07853       -6.44117       -0.71078
C          4.37021       -7.55825        0.39373
C          3.72469       -6.86469        1.41733
C          3.83981       -5.44532        1.27861
C          3.00801       -7.48825        2.49813
N          2.40617       -7.96222        3.36580
C          4.47325       -8.96974        0.18500
C          5.19282       -9.54098       -0.80005
C          5.30509      -10.96073       -0.99135
N          5.53597      -11.58072       -2.22862
C          5.66142      -10.95395       -3.53030
C          4.32618      -10.79970       -4.24168
C          5.59722      -12.98494       -2.09787
O          5.75640      -13.84512       -2.93933
C          5.42508      -13.17866       -0.65325
C          5.26515      -11.89656       -0.03663
C          5.11434      -12.11199        1.41687
O          4.98489      -11.27085        2.28178
N          5.17196      -13.51217        1.53226
C          5.07845      -14.17727        2.81632
C          3.64069      -14.46386        3.22330
C          5.35758      -14.11334        0.29010
C          5.49049      -15.51443        0.06997
C          4.53365      -16.40106        0.36390
C          4.72852      -17.77878        0.12175
S          3.97205      -18.91580        1.13673
C          4.59868      -20.27027        0.26631
C          5.41484      -19.82484       -0.76162
C          5.47864      -18.40794       -0.84607
C          6.11288      -20.66995       -1.68192
N          6.70324      -21.31496       -2.44091
C          4.26873      -21.60640        0.65794
C          3.08745      -21.89289        1.22564
C          2.69686      -23.18933        1.68895
C          1.47788      -23.74206        1.75827
C          1.47214      -25.06693        2.47372
O          2.40642      -25.64809        2.98970
C          0.09367      -25.54087        2.45752
C         -0.72850      -24.65181        1.76148
C         -2.06596      -25.00902        1.62967
C         -2.56722      -26.18975        2.22811
C         -1.70728      -27.03700        2.96365
C         -0.35325      -26.70482        3.06667
C         -2.19840      -28.24542        3.71319
C         -4.03722      -26.49213        2.08377
C          0.08411      -23.45229        1.32933
C         -0.44167      -22.37238        0.69607
C          0.26084      -21.19628        0.31095
N          0.71934      -20.18251       -0.01644
C         -1.82435      -22.25990        0.34782
N         -2.93430      -22.13545        0.05138
H          9.13600       -1.19384       -2.23079
H         11.43439       -1.18042       -2.73825
H         11.71391       -2.88089       -3.16808
H         12.59171       -2.12116       -1.81045
H         12.86335       -3.85538       -0.28305
H         12.14063       -4.99902       -1.45402
H         11.98391       -5.27651        0.28245
H          9.77827       -4.94596        1.01818
H          4.30159       -3.37456       -1.04103
H          3.40634       -4.72699        1.96557
H          3.93396       -9.59560        0.89315
H          5.75499       -8.93948       -1.50582
H          6.30300      -11.59115       -4.15263
H          6.17378       -9.99196       -3.43794
H          3.86173      -11.77546       -4.42068
H          4.46756      -10.31361       -5.21304
H          3.62687      -10.19694       -3.65490
H          5.52474      -13.52050        3.57265
H          5.67373      -15.09582        2.80053
H          3.06858      -13.53809        3.33546
H          3.61648      -15.00726        4.17233
H          3.11439      -15.06976        2.48545
H          6.42327      -15.82075       -0.39816
H          3.59092      -16.08940        0.79934
H          6.04155      -17.86828       -1.60029
H          4.98623      -22.39817        0.44924
H          2.39500      -21.09610        1.45573
H          3.54465      -23.74981        2.09615
H         -2.77683      -24.40469        1.08025
H          0.34247      -27.32620        3.62579
H         -3.12230      -28.65077        3.29397
H         -2.37662      -27.98001        4.76040
H         -1.45497      -29.04888        3.67470
H         -4.53047      -25.78282        1.41016
H         -4.53150      -26.42709        3.05777
H         -4.18353      -27.48918        1.65744
