91

C          4.98782        3.99504       -1.74800
C          5.82453        3.45673       -0.82890
C          7.20058        3.21932       -1.10630
N          8.32046        3.02735       -1.34316
C          5.36566        3.01132        0.44504
N          4.97711        2.66153        1.48459
C          5.32045        4.36519       -3.15292
C          4.13612        4.33229       -3.89777
C          4.04684        4.63869       -5.24266
C          5.21081        5.04451       -5.88831
C          6.43291        5.13061       -5.15822
C          6.47885        4.78371       -3.78743
C          7.57820        5.58128       -5.82677
C          7.52727        5.92785       -7.17935
C          6.33206        5.82896       -7.88707
C          5.17688        5.39116       -7.24455
C          2.99878        4.02630       -3.03540
O          1.91129        3.68993       -3.44869
C          3.51836        4.14068       -1.63015
C          2.84018        4.59614       -0.56113
C          1.48521        5.04176       -0.57697
S          1.06403        6.41086        0.37785
C         -0.56539        6.46640       -0.20027
C         -0.77832        5.41841       -1.08228
C          0.36591        4.57846       -1.23467
C         -1.99258        5.18098       -1.81190
N         -2.96992        4.99107       -2.39743
C         -1.38112        7.54909        0.26619
C         -2.71249        7.46166        0.42979
C         -3.56105        8.55121        0.84469
C         -3.86710        8.83405        2.17994
C         -3.40656        8.20495        3.42608
O         -2.57704        7.29282        3.45570
C         -3.99533        8.69248        4.74427
S         -4.97471       10.14870        2.28612
C         -5.01970       10.36151        0.61068
C         -4.21722        9.46858       -0.06510
C         -4.11357        9.59987       -1.49164
C         -3.94499        8.62921       -2.40112
C         -3.81459        8.96399       -3.77760
S         -4.37569        7.87468       -4.98890
C         -3.85279        9.01173       -6.17871
N         -3.28417       10.08131       -5.65830
N         -3.29412       10.06886       -4.28103
C         -4.05516        8.71967       -7.54931
C         -3.21826        9.18853       -8.48631
C         -3.36708        8.87194       -9.88900
C         -3.35986        7.64250      -10.42988
C         -3.41619        7.25768      -11.85399
C         -4.12143        7.88270      -12.82921
C         -4.17670        7.40554      -14.16740
N         -4.20673        7.02541      -15.26453
C         -4.93862        9.01926      -12.56090
N         -5.61856        9.93310      -12.33046
C         -2.76256        5.92082      -11.95358
C         -2.62455        5.40570      -10.65783
C         -3.04741        6.38881       -9.65900
O         -3.10196        6.17598       -8.46673
C         -2.10843        4.15345      -10.37132
C         -1.67757        3.36644      -11.43856
C         -1.76475        3.87102      -12.76787
C         -2.30402        5.15360      -13.01376
C         -1.30809        3.06866      -13.82257
C         -0.78463        1.79712      -13.57863
C         -0.70773        1.30761      -12.27774
C         -1.15067        2.08837      -11.21154
H          3.08579        4.59800       -5.74863
H          7.41661        4.88443       -3.24862
H          8.52532        5.67188       -5.29904
H          8.42538        6.27779       -7.68165
H          6.29666        6.09769       -8.93966
H          4.24905        5.32882       -7.81046
H          3.37887        4.79721        0.36292
H          0.36331        3.69598       -1.86341
H         -0.87721        8.47923        0.52119
H         -3.23025        6.52605        0.23341
H         -5.06346        8.45754        4.78643
H         -3.83816        9.76782        4.87621
H         -3.50403        8.18916        5.58204
H         -5.64061       11.14371        0.19542
H         -4.22553       10.62003       -1.86890
H         -3.91126        7.58458       -2.12152
H         -4.87385        8.05910       -7.82023
H         -2.38738        9.84113       -8.22013
H         -3.43381        9.76240      -10.51080
H         -2.03858        3.81666       -9.34019
H         -2.33905        5.51501      -14.03661
H         -1.35996        3.42429      -14.84966
H         -0.43811        1.18602      -14.40870
H         -0.30221        0.31613      -12.09161
H         -1.08124        1.68869      -10.20140
