110

C          0.46238        0.06283        0.49752
C          0.67650        0.13168       -0.83775
C          1.97838        0.01888       -1.40487
N          3.04855       -0.03936       -1.84717
C         -0.39234        0.29294       -1.76551
N         -1.26196        0.45059       -2.52455
C          1.44321       -0.38119        1.51380
C          0.73232       -1.03890        2.53084
C          1.34767       -1.62217        3.62206
C          2.73942       -1.50955        3.72700
C          3.47506       -0.78499        2.74234
C          2.81438       -0.22198        1.63386
C          4.86114       -0.63900        2.89866
C          5.51896       -1.21208        3.98858
C          4.80173       -1.93753        4.93510
C          3.42046       -2.08239        4.80813
C         -0.72310       -0.87953        2.32363
O         -1.61258       -1.34149        3.00476
C         -0.83515        0.08607        1.17626
C         -1.84227        0.97158        1.24284
C         -1.83321        2.28037        0.66661
S         -3.18057        3.31857        0.96828
C         -2.41658        4.68204        0.26070
C         -1.23672        4.32472       -0.34921
C         -0.88020        2.97910       -0.05490
C         -0.41274        5.20684       -1.12547
N          0.30310        5.86777       -1.74970
C         -3.06833        5.93917        0.30907
C         -2.87295        6.79689        1.33198
C         -3.49225        8.09446        1.39608
N         -3.81870        8.80099        2.57809
C         -3.54246        8.40623        3.95338
C         -4.57464        8.93540        4.95264
C         -4.38015       10.05930        2.27929
O         -4.74423       10.97181        2.99378
C         -4.43052       10.05325        0.82272
C         -3.83381        8.85455        0.34504
C         -3.85529        8.91882       -1.13276
O         -3.38188        8.09710       -1.89167
N         -4.54000       10.12484       -1.39152
C         -4.77348       10.69233       -2.70868
C         -4.33522        9.84757       -3.89173
C         -4.86867       10.77180       -0.20259
C         -5.56946       12.01163       -0.07820
C         -6.83424       12.21985       -0.48771
C         -7.50829       13.45588       -0.23804
C         -8.48036       14.13138       -0.97911
C         -8.70065       15.48087       -0.47660
C         -9.41892       16.58793       -1.00230
C         -9.55974       17.77000       -0.25383
C         -9.01595       17.87093        1.02202
C         -8.27859       16.81904        1.54589
C         -8.10900       15.65494        0.77566
S         -7.18741       14.30156        1.22833
C        -10.28219       18.87854       -0.80433
N        -10.85939       19.77652       -1.25125
C         -9.18131       13.55282       -2.09584
N         -8.73579       13.51151       -3.43203
C         -7.65062       14.23403       -4.05949
C         -6.28254       14.18004       -3.41458
C         -9.71624       12.93085       -4.28123
O         -9.72227       12.80177       -5.48822
C        -10.78970       12.56485       -3.35363
C        -10.38911       12.96607       -2.03633
C        -11.49565       12.60113       -1.12584
O        -11.51285       12.79198        0.07314
N        -12.45839       12.01208       -1.98861
C        -13.76996       11.51213       -1.57673
C        -14.12382       11.68932       -0.10471
C        -12.00526       12.02090       -3.31457
C        -12.74347       11.51080       -4.44155
C        -13.04948       12.23845       -5.52695
H          0.75266       -2.11809        4.38367
H          3.38577        0.34683        0.90533
H          5.44573       -0.07766        2.17215
H          6.59457       -1.09352        4.09552
H          5.31858       -2.39030        5.77886
H          2.87972       -2.64810        5.56486
H         -2.65962        0.75519        1.93634
H          0.07392        2.58568       -0.36083
H         -3.70338        6.17232       -0.54007
H         -2.20994        6.51828        2.15019
H         -2.55522        8.79985        4.21988
H         -3.51030        7.31442        4.02469
H         -4.41558       10.00262        5.14945
H         -4.49549        8.42922        5.91808
H         -5.59678        8.81264        4.57670
H         -4.25267       11.65663       -2.74677
H         -5.84794       10.87866       -2.80296
H         -3.25860        9.65357       -3.86313
H         -4.55485       10.36758       -4.82817
H         -4.86465        8.88944       -3.90453
H         -5.02574       12.76233        0.49600
H         -7.36340       11.45047       -1.04498
H         -9.85145       16.52485       -1.99930
H         -9.15363       18.76958        1.62354
H         -7.83686       16.88885        2.54295
H         -7.98130       15.27045       -4.18205
H         -7.53028       13.83685       -5.07726
H         -6.29691       14.31245       -2.33901
H         -5.65604       14.98201       -3.81602
H         -5.79188       13.23038       -3.63922
H        -13.81782       10.44433       -1.82492
H        -14.52813       12.02694       -2.17867
H        -13.45158       11.10860        0.53597
H        -15.14512       11.34619        0.09195
H        -14.06736       12.74097        0.19458
H        -13.01929       10.45860       -4.41944
H        -12.78412       13.28781       -5.61673
H        -13.56011       11.79116       -6.37454
