105

C          9.37805       -7.98261       -1.36402
C         10.55661       -8.01883       -2.09575
C         11.46727       -9.08413       -1.89293
C         12.67281       -9.10262       -2.67238
N         13.63626       -9.11617       -3.30913
C         11.19384      -10.11405       -0.96681
C         12.08230      -11.22402       -0.77057
N         12.76851      -12.14240       -0.59588
C         10.00893      -10.08182       -0.23479
C          9.14056       -9.02574       -0.46060
C          7.82278       -8.88620        0.15280
O          7.47216       -9.50493        1.13319
C          7.11495       -7.83012       -0.64574
C          8.19020       -7.07378       -1.34134
C          8.16761       -5.77409       -1.72682
C          9.31329       -5.12388       -2.26759
N         10.26596       -4.62286       -2.70252
C          7.02441       -4.94088       -1.55322
N          6.09089       -4.26346       -1.42376
C          5.78705       -7.76226       -0.84699
C          4.82812       -8.71192       -0.37329
C          4.93713      -10.08858       -0.18289
C          3.68786      -10.64849        0.06506
C          2.66117       -9.74874        0.20423
S          3.18479       -8.17585       -0.06307
C          1.38249      -10.32894        0.48151
C          1.34597      -11.70649        0.55302
Si         3.05111      -12.38225        0.26174
C          3.16276      -13.40678       -1.28505
C          3.86256      -13.29102        1.64354
C          0.06381      -12.24767        0.70346
C         -0.88868      -11.23156        0.73612
S         -0.13272       -9.65545        0.70174
C         -2.33121      -11.37085        0.78857
C         -3.09137      -12.40542        1.29740
C         -4.51416      -12.13449        1.24577
N         -5.45641      -12.97986        1.75289
C         -4.90439      -14.09557        2.31097
C         -5.86718      -15.03576        2.93324
O         -7.06935      -14.81317        3.00189
C         -5.33772      -16.29221        3.49695
C         -4.03591      -16.57844        3.47856
C         -3.04417      -15.64870        2.90591
O         -1.86017      -15.96268        2.91078
C         -3.53587      -14.37221        2.33324
N         -2.56512      -13.54384        1.83728
C         -4.81243      -10.93403        0.63462
S         -3.36570      -10.15726        0.12959
C         -6.09371      -10.29513        0.41928
C         -6.45288       -9.43978       -0.62356
C         -7.73775       -8.93017       -0.40332
C         -8.34801       -9.38078        0.74315
S         -7.38348      -10.46695        1.57772
C         -9.56097       -8.71695        1.10347
C         -9.93305       -7.65455        0.30916
Si        -8.79164       -7.59189       -1.16616
C         -7.93569       -6.01526       -1.54526
C         -9.66219       -8.21884       -2.69737
C        -10.92653       -6.84695        0.88057
C        -11.29963       -7.34243        2.13409
S        -10.62524       -8.93977        2.37465
C        -12.17265       -6.73618        3.08838
C        -12.11234       -6.86414        4.42438
C        -13.30657       -6.40882        5.20914
O        -14.17487       -5.63100        4.87635
C        -13.25958       -7.16484        6.47379
C        -14.21878       -7.14486        7.47489
C        -14.02259       -7.97308        8.58711
C        -12.90142       -8.83082        8.64017
C        -11.94594       -8.83066        7.60069
C        -12.10241       -7.95934        6.53018
C        -11.24561       -7.59052        5.36792
C         -9.89019       -7.64042        5.36455
C         -9.13963       -8.38659        6.31713
N         -8.55450       -9.01326        7.09691
C         -9.11010       -6.85778        4.46407
N         -8.45988       -6.18621        3.77877
C        -12.69018       -9.70932        9.75788
N        -12.50351      -10.42284       10.65231
C        -14.97096       -7.91454        9.66316
N        -15.73650       -7.84087       10.53069
H         10.79518       -7.26522       -2.84375
H          9.74540      -10.86536        0.47342
H          5.37656       -7.00662       -1.51318
H          5.85058      -10.65858       -0.27937
H          2.59369      -12.95354       -2.10336
H          2.76178      -14.41136       -1.11851
H          4.19981      -13.51077       -1.61880
H          3.86209      -12.69885        2.56352
H          4.90578      -13.51874        1.39996
H          3.35624      -14.23763        1.85167
H         -0.17485      -13.30499        0.72208
H         -6.06781      -16.96950        3.92698
H         -3.64579      -17.50465        3.88719
H         -5.79630       -9.17252       -1.44321
H         -7.46367       -5.59220       -0.65316
H         -8.62645       -5.26548       -1.94219
H         -7.14806       -6.16410       -2.29132
H        -10.18327       -9.16023       -2.49541
H         -8.94921       -8.39539       -3.50825
H        -10.40264       -7.49326       -3.04765
H        -11.29255       -5.91010        0.47574
H        -12.97630       -6.13318        2.66289
H        -15.08666       -6.49346        7.39054
H        -11.10058       -9.51206        7.66873
