83

C         -9.42412       -6.22961      -11.05190
C         -9.39944       -5.99409       -9.67996
C         -8.62111       -4.91774       -9.15301
N         -8.01239       -3.99708       -8.79937
C        -10.27880       -6.88460       -9.03305
C        -10.97511       -7.66245       -9.89666
S        -10.54986       -7.46240      -11.50021
S        -12.13714       -8.64369       -9.17162
C        -11.68025       -8.02655       -7.67202
C        -10.66340       -7.13795       -7.71480
C        -10.22763       -6.72637       -6.43685
C         -9.05532       -5.96374       -6.13742
N         -8.07972       -5.39768       -5.86757
C        -11.06950       -7.25073       -5.44302
S        -12.25745       -8.32721       -6.13952
C        -11.08202       -7.02862       -4.00433
C        -11.50196       -7.91447       -3.00443
C        -11.47845       -7.30642       -1.72876
C        -11.01269       -6.01562       -1.80022
S        -10.62887       -5.49127       -3.32485
C        -11.05751       -5.44256       -0.51504
C        -11.57660       -6.35511        0.37092
C        -11.83425       -7.60986       -0.33831
C        -12.28100       -8.77303        0.17046
C        -12.47998       -9.91291       -0.65081
N        -12.64285      -10.83921       -1.33557
C        -12.56868       -8.92540        1.55448
N        -12.80846       -9.05613        2.68179
C        -11.72453       -5.79858        1.66304
C        -11.29887       -4.46579        1.70794
S        -10.63420       -3.99222        0.15076
C        -11.19488       -3.51939        2.84463
C        -10.93438       -3.91240        4.17977
C        -10.38683       -2.98679        5.14411
N        -10.15200       -3.35675        6.42080
C        -10.47584       -4.62041        6.76878
C        -10.96751       -5.52228        5.85164
N        -11.17670       -5.18803        4.55653
F        -11.28294       -6.76728        6.23451
F        -10.32229       -4.97743        8.05152
C        -10.02264       -1.68643        4.77343
C        -10.62792       -1.17093        3.59518
C        -11.23834       -2.11216        2.60713
N        -11.72882       -1.46902        1.53217
S        -11.40396        0.13934        1.71689
N        -10.62291        0.10728        3.17440
C         -8.67310       -1.14542        5.02943
C         -8.23003        0.15778        5.27034
C         -6.93281        0.33206        4.71924
C         -6.43642       -0.84736        4.21506
S         -7.34797       -2.18854        4.54032
C         -5.33695       -0.57041        3.38375
C         -5.10843        0.78393        3.38179
C         -6.04892        1.42634        4.30679
C         -6.08250        2.71225        4.70211
C         -7.03751        3.17422        5.64747
N         -7.81749        3.54898        6.42184
C         -5.13723        3.65842        4.22115
N         -4.35971        4.41887        3.81776
C         -4.11962        1.13077        2.43227
C         -3.66105        0.00661        1.73071
S         -4.45067       -1.43801        2.28899
C         -2.70505       -0.03133        0.63177
C         -1.79986       -1.03538        0.24686
C         -1.68060       -2.27693        0.94587
N         -1.62194       -3.27258        1.53662
C         -1.04552       -0.61778       -0.87157
C         -1.38939        0.61195       -1.31497
S         -2.60680        1.34067       -0.44376
S         -0.50777        1.15422       -2.64318
C          0.36585       -0.28532       -2.61249
C         -0.00687       -1.15358       -1.64003
C          0.74814       -2.34473       -1.65187
C          0.68369       -3.50834       -0.82592
N          0.70805       -4.49138       -0.21169
C          1.69515       -2.28709       -2.67129
S          1.62361       -0.81848       -3.57444
H         -8.86629       -5.71791      -11.82683
H        -11.83503       -8.92294       -3.21877
H        -12.11716       -6.31475        2.53061
H         -8.89707        0.95423        5.57727
H         -3.77797        2.13635        2.21740
H          2.43156       -3.03593       -2.93733
