92

C         -0.96510       -5.04475        9.60266
C          0.15496       -4.55747        9.06020
C          0.70400       -3.25306        9.30923
C          1.79202       -2.98504        8.56233
C          2.16074       -4.06481        7.65257
S          1.11187       -5.45513        7.91813
C          3.11577       -4.00035        6.69584
C          3.96969       -2.86843        6.39428
C          4.67782       -3.00694        5.26290
C          4.41241       -4.24663        4.56323
S          3.41642       -5.30123        5.54223
C          4.77111       -4.49808        3.29420
C          4.18366       -5.57746        2.46170
C          4.75238       -6.85412        2.22596
O          5.96294       -7.04530        2.84115
C          6.90391       -7.99012        2.35719
C          4.01071       -7.81432        1.47886
O          4.52597       -9.09118        1.35611
C          4.46464       -9.69221        0.05611
C          2.69860       -7.50417        1.01573
C          2.19142       -6.21884        1.23717
C          2.92860       -5.26579        1.92746
C          1.82508       -8.55019        0.43221
C          1.01589       -8.49954       -0.63751
C          0.45867       -9.68077       -1.26163
C         -0.08149       -9.44531       -2.46778
C         -0.00171       -8.05310       -2.86932
S          0.59622       -7.07800       -1.53178
C         -0.15992       -7.54589       -4.10533
C         -0.34670       -8.28588       -5.33675
C          0.07865       -7.61174       -6.41780
C          0.59750       -6.29231       -6.08630
S          0.11620       -5.84488       -4.47534
C          1.43646       -5.57206       -6.84307
C          2.14540       -4.35917       -6.37801
C          1.62174       -3.05572       -6.50651
O          0.38493       -2.99015       -7.10973
C          0.12174       -1.84628       -7.91290
C          2.34282       -1.94507       -5.99481
O          1.72915       -0.71910       -6.10165
C          1.96799        0.25933       -5.09953
C          3.64325       -2.14820       -5.47369
C          4.14555       -3.45101       -5.35004
C          3.39786       -4.54514       -5.77866
C          4.57268       -1.05027       -5.16030
C          5.44785       -0.53118       -6.03627
C          6.21621        0.66394       -5.78865
C          6.94097        1.06209       -6.84330
C          6.83367        0.18844       -8.00128
S          5.75374       -1.15480       -7.63796
C          7.43195        0.37384       -9.19420
C          8.29475        1.48744       -9.55030
C          8.67879        1.49189      -10.83409
C          8.15837        0.37995      -11.58556
S          7.23896       -0.70326      -10.58202
C          8.32658        0.18637      -12.89595
H         -1.56265       -4.46153       10.29320
H         -1.32250       -6.03891        9.35740
H          0.26565       -2.55717       10.01050
H          2.31259       -2.04158        8.60919
H          4.00239       -1.97661        7.00267
H          5.31913       -2.23260        4.86110
H          5.35164       -3.76957        2.73514
H          7.15450       -8.68427        3.16598
H          7.81556       -7.44675        2.08963
H          6.62361       -8.55487        1.47157
H          4.30368       -8.97847       -0.75972
H          3.68943      -10.46569        0.05018
H          5.41004      -10.21006       -0.13231
H          1.18723       -5.94308        0.92551
H          2.48159       -4.28813        2.10184
H          1.96276       -9.51418        0.91335
H          0.55676      -10.66683       -0.82913
H         -0.48874      -10.22212       -3.09937
H         -0.69445       -9.31140       -5.37137
H          0.11574       -8.01334       -7.41565
H          1.74405       -5.92838       -7.82141
H         -0.51715       -2.16178       -8.74366
H          1.02308       -1.40613       -8.35344
H         -0.43709       -1.10802       -7.32958
H          2.80490        0.89867       -5.39452
H          2.12148       -0.17201       -4.10488
H          1.08596        0.90490       -5.04179
H          5.14290       -3.62155       -4.94774
H          3.80990       -5.54530       -5.66340
H          4.45412       -0.61428       -4.17375
H          6.15882        1.21275       -4.85888
H          7.52978        1.96727       -6.83765
H          8.58960        2.25615       -8.85136
H          9.30697        2.25262      -11.27568
H          8.88688        0.88706      -13.50533
H          7.89413       -0.67238      -13.39900
