131

C         -4.46865        0.03044       -4.09276
C         -3.19995       -0.01055       -3.68098
C         -2.25627        1.07077       -3.76629
C         -1.03329        0.74444       -3.32439
C         -0.91808       -0.63331       -2.86738
S         -2.49090       -1.43257       -2.97514
C          0.21066       -1.24800       -2.46215
C          1.53295       -0.65234       -2.38578
C          2.50667       -1.52344       -2.08651
C          2.03386       -2.87548       -1.90206
S          0.29440       -2.94968       -2.00031
C          2.84273       -3.92796       -1.71410
C          2.40738       -5.32130       -1.58683
C          2.13937       -5.86205       -0.32412
C          1.75082       -7.19194       -0.25183
C          1.62251       -7.98085       -1.41859
C          1.87752       -7.44705       -2.66797
C          2.26909       -6.10923       -2.74790
C          1.17903       -9.30543       -1.05181
C          1.01211       -9.35982        0.34574
C          1.40593       -8.02580        0.98471
C          0.23002       -7.42535        1.80192
C         -1.04672       -7.14285        1.01118
C          2.64157       -8.20316        1.91448
C          3.91613       -8.71639        1.24130
C          0.52829      -10.49889        0.96598
C          0.23594      -11.61826        0.17865
C          0.42102      -11.56422       -1.21837
C          0.89752      -10.40685       -1.84015
C         -0.30688      -12.84496        0.76822
C          0.03553      -13.28379        1.98881
C         -0.48094      -14.48935        2.54342
S         -0.77884      -14.50412        4.23641
C         -1.37879      -16.12686        4.26805
C         -1.35737      -16.64656        2.98094
C         -0.79489      -15.72314        2.00810
C         -0.58058      -16.05236        0.65873
C         -1.02188      -17.34343        0.31355
S         -0.81317      -17.86416       -1.38841
C         -1.59422      -18.24338        1.25845
C         -1.76905      -17.94399        2.62982
C         -1.79890      -16.67487        5.58415
C         -1.13229      -16.30015        6.77572
C         -1.53278      -16.83482        7.99450
C         -2.60442      -17.74108        8.04995
C         -3.27905      -18.12219        6.90524
C         -2.87831      -17.57935        5.68123
C         -2.81205      -18.14326        9.41490
C         -1.86766      -17.50717       10.24497
C         -0.93408      -16.62667        9.40346
C         -0.95732      -15.14272        9.85183
C         -2.31852      -14.45096        9.81415
C          0.51770      -17.19581        9.40298
C          1.21821      -17.26786       10.75838
C         -1.87186      -17.72026       11.61874
C         -2.80507      -18.61148       12.16382
C         -3.73904      -19.23406       11.30884
C         -3.75473      -19.00024        9.93817
C         -2.77016      -18.88202       13.61023
C         -3.66771      -19.65877       14.23207
C         -3.64375      -19.92870       15.64281
C         -4.70697      -20.27416       16.37647
C         -4.76126      -20.65985       17.81158
C         -3.92241      -20.21906       18.78226
C         -4.13292      -20.54316       20.15360
N         -4.29405      -20.80371       21.26908
C         -2.83177      -19.33857       18.54125
N         -1.94402      -18.61967       18.34866
C         -6.03563      -21.39835       18.00185
C         -6.83945      -21.20194       16.87960
C         -6.10496      -20.46712       15.84002
O         -6.57399      -20.11446       14.77883
C         -8.14365      -21.67361       16.76136
C         -8.67275      -22.40787       17.84589
C         -7.84456      -22.67058       18.94838
C         -6.51378      -22.19109       19.03705
S         -8.66906      -23.61772       20.13487
C        -10.09732      -23.61341       19.23695
C         -9.98399      -22.96457       18.03660
Br       -11.68061      -24.41829       19.83110
H         -4.89457        0.92062       -4.54102
H         -5.11762       -0.83536       -3.99850
H         -2.51839        2.04294       -4.15999
H         -0.20538        1.43842       -3.33099
H          1.72431        0.39459       -2.57118
H          3.55216       -1.25823       -2.01042
H          3.92078       -3.79687       -1.68555
H          2.22455       -5.25835        0.57359
H          1.76828       -8.04224       -3.56769
H          2.45801       -5.67521       -3.72719
H          0.54952       -6.48603        2.27110
H         -0.02851       -8.10372        2.62643
H         -0.88084       -6.38642        0.23862
H         -1.82225       -6.76085        1.68315
H         -1.44027       -8.04536        0.53444
H          2.39082       -8.89492        2.72989
H          2.88230       -7.24332        2.39001
H          3.75699       -9.67436        0.73784
H          4.69972       -8.86523        1.99163
H          4.29994       -7.99891        0.50953
H          0.36591      -10.50210        2.03864
H          0.19348      -12.43141       -1.83545
H          1.03062      -10.37983       -2.91605
H         -1.00578      -13.38779        0.13872
H          0.70596      -12.69886        2.61392
H         -0.11117      -15.40364       -0.06877
H         -1.85532      -18.70552       -1.42630
H         -1.90110      -19.23346        0.92112
H         -2.17519      -18.68699        3.30019
H         -0.30080      -15.60223        6.76169
H         -4.10262      -18.82768        6.94548
H         -3.44393      -17.87235        4.80208
H         -0.26625      -14.56029        9.22884
H         -0.58747      -15.06005       10.88090
H         -2.71935      -14.40006        8.79807
H         -2.21745      -13.42294       10.17967
H         -3.04836      -14.95465       10.45465
H          1.14236      -16.58614        8.73650
H          0.52420      -18.20862        8.97611
H          1.17042      -16.32128       11.30243
H          2.27460      -17.52013       10.62463
H          0.79101      -18.05586       11.38479
H         -1.15167      -17.21309       12.25384
H         -4.48700      -19.92150       11.68931
H         -4.49343      -19.49119        9.31571
H         -1.98164      -18.39065       14.17772
H         -4.47119      -20.13309       13.68105
H         -2.64998      -19.86991       16.07396
H         -8.73075      -21.47127       15.86900
H         -5.92194      -22.44888       19.90808
H        -10.79411      -22.86768       17.32367
