89

C          4.39759       -1.07624        4.02686
C          4.17209       -0.38426        5.21051
C          3.52221        0.84075        4.94910
C          3.29312        1.01982        3.60116
S          3.82022       -0.22533        2.63231
C          2.65613        2.26422        3.40879
C          2.48010        2.87261        4.63099
C          3.01459        2.00189        5.68197
C          3.03603        2.21370        7.01219
C          2.50169        3.39801        7.58613
N          2.06417        4.36670        8.05325
C          3.59270        1.26414        7.91370
N          4.04687        0.48885        8.64739
C          1.86048        4.13672        4.49739
C          1.59642        4.44021        3.15832
S          2.10628        3.13749        2.11181
C          1.00085        5.64612        2.60546
C          0.75298        5.92490        1.25920
C          0.18973        7.20664        1.08918
C          0.01358        7.85561        2.29160
S          0.51019        6.98191        3.61675
C         -0.54168        9.13506        2.04242
C         -0.70217        9.28974        0.68350
C         -0.25932        8.07169       -0.00040
C         -0.26628        7.80422       -1.32141
C         -0.73970        8.75047       -2.27023
N         -1.12715        9.52905       -3.03846
C          0.19501        6.56289       -1.84068
N          0.57138        5.55012       -2.26427
C         -1.23022       10.56093        0.36237
C         -1.46822       11.33773        1.50544
S         -1.04018       10.44380        2.94137
C         -2.03624       12.69003        1.54348
C         -1.84725       13.76485        2.43664
C         -0.96250       13.66667        3.55526
N         -0.23111       13.53614        4.44489
C         -2.60651       14.90136        2.03750
C         -3.32096       14.67138        0.91226
S         -3.15614       13.14189        0.27893
S         -4.23449       15.97689        0.36903
C         -3.66539       16.88017        1.67017
C         -2.81521       16.22053        2.49047
C         -2.37977       17.03035        3.57303
C         -1.51399       16.64538        4.64170
N         -0.81958       16.39149        5.53587
C         -2.94471       18.32095        3.50280
S         -3.98687       18.45453        2.11006
C         -2.78960       19.48656        4.37823
C         -3.72728       20.49736        4.64194
C         -3.22411       21.46002        5.55347
C         -1.93477       21.16497        5.93346
S         -1.29558       19.81251        5.21675
C         -1.48702       22.14289        6.85070
C         -2.49121       23.06244        7.04750
C         -3.65139       22.69013        6.23203
C         -4.82924       23.33570        6.12699
C         -5.09423       24.53407        6.84694
N         -5.30734       25.51266        7.43439
C         -5.86867       22.85644        5.28384
N         -6.71009       22.45790        4.59274
C         -2.10185       24.06824        7.96229
C         -0.79731       23.86873        8.42977
S         -0.10092       22.43468        7.71840
C         -0.04826       24.68533        9.37630
C          1.25506       24.49139        9.85095
C          1.63082       25.49271       10.77716
C          0.61722       26.40377       10.96863
S         -0.75727       26.11471       10.08548
C          1.03744       27.36690       11.91089
C          2.31999       27.06466       12.31791
C          2.77504       25.86193       11.61798
C          3.96813       25.24521       11.72652
C          4.98594       25.72871       12.59361
N          5.81700       26.12485       13.30227
C          4.27418       24.07976       10.97546
N          4.52373       23.12818       10.35871
C          2.79429       27.98610       13.27618
C          1.82851       28.94911       13.54242
S          0.37684       28.71508       12.62656
H          4.87432       -2.04004        3.90386
H          4.47501       -0.77483        6.17445
H          1.62312        4.81624        5.30685
H          0.99046        5.22500        0.46710
H         -1.43440       10.91852       -0.63984
H         -4.71707       20.50852        4.19975
H         -2.71433       24.90259        8.28228
H          1.87399       23.66018        9.53598
H          3.75998       27.98590       13.76724
H          1.89453       29.78184       14.23033
