108

C          4.63061       -4.91602        3.50805
C          5.58645       -5.91989        3.36972
F          6.74026       -5.82290        4.04401
C          5.34684       -7.01603        2.55376
F          6.25630       -7.99478        2.45232
C          4.16139       -7.11247        1.83436
C          3.19150       -6.10517        1.94199
C          3.41064       -4.99880        2.81791
C          2.40111       -4.02496        3.00135
C          1.19669       -4.14170        2.31494
C          1.04313       -5.20974        1.41807
C          2.00173       -6.18765        1.21367
C         -0.30195       -5.19208        0.82423
O         -0.62617       -5.72164       -0.21561
C         -1.10197       -4.27748        1.70362
C         -0.09807       -3.39598        2.36295
C         -0.28448       -2.12211        2.78792
C         -1.54176       -1.46582        2.66914
N         -2.57788       -0.94800        2.57786
C          0.77222       -1.33013        3.32638
N          1.63526       -0.69397        3.77074
C         -2.40240       -4.44296        2.00601
C         -3.22902       -5.50091        1.51315
C         -4.01779       -5.54239        0.36139
C         -4.67436       -6.78682        0.22014
C         -4.35845       -7.64454        1.25090
S         -3.45575       -6.95184        2.46639
C         -4.89518       -8.92052        0.96007
C         -5.57509       -8.86004       -0.23813
C         -5.54303       -7.48181       -0.73465
C         -6.22169       -6.95751       -1.77339
C         -7.09024       -7.74960       -2.57412
N         -7.80580       -8.40052       -3.21658
C         -6.16027       -5.56902       -2.07506
N         -6.11924       -4.43311       -2.30858
C         -6.05422      -10.12988       -0.63273
C         -5.70027      -11.11468        0.29393
S         -4.81975      -10.43605        1.63521
C         -5.96486      -12.53757        0.22394
C         -6.15457      -13.42620        1.28559
C         -6.39107      -14.73906        0.82023
C         -6.35656      -14.80176       -0.55463
S         -6.06382      -13.35293       -1.31142
C         -6.59908      -16.13225       -0.95894
C         -6.79261      -16.91066        0.15992
C         -6.67096      -16.07328        1.35511
C         -6.79446      -16.44129        2.64701
C         -7.07809      -17.78375        3.01730
N         -7.31181      -18.88033        3.31612
C         -6.65228      -15.50398        3.70898
N         -6.53753      -14.73974        4.56997
C         -7.05003      -18.25676       -0.18455
C         -7.03534      -18.43988       -1.57053
S         -6.70352      -16.94677       -2.40228
C         -7.26500      -19.66606       -2.30930
C         -6.73758      -20.03117       -3.55149
C         -7.18870      -21.31049       -3.94535
C         -8.04182      -21.85555       -3.01180
S         -8.31143      -20.90640       -1.67632
C         -8.42233      -23.14581       -3.43864
C         -7.78734      -23.42731       -4.62556
C         -7.02198      -22.25554       -5.05178
C         -6.37249      -22.06901       -6.21865
C         -6.38132      -23.05666       -7.24154
N         -6.40731      -23.85947       -8.07971
C         -5.69148      -20.85589       -6.50713
N         -5.13809      -19.86195       -6.74124
C         -8.01815      -24.75910       -5.03052
C         -8.82080      -25.44849       -4.11225
S         -9.42822      -24.34866       -2.89496
C         -9.19381      -26.82698       -4.17873
C         -9.45005      -27.66120       -3.15945
C        -10.04664      -29.00037       -3.49606
O        -10.05333      -29.56617       -4.56888
C        -10.68283      -29.47739       -2.25496
C        -11.40264      -30.65099       -2.09745
C        -11.97032      -30.91281       -0.84433
C        -11.86019      -29.94316        0.19862
C        -12.46415      -30.20157        1.43831
C        -13.12351      -31.40702        1.65866
C        -13.20079      -32.36196        0.65524
C        -12.64083      -32.12003       -0.59540
F        -13.81276      -33.53180        0.88410
F        -13.67242      -31.64312        2.85797
C        -11.12345      -28.75868       -0.00691
C        -10.47632      -28.55633       -1.21791
C         -9.47531      -27.55701       -1.69296
C         -8.53945      -26.98705       -0.89567
C         -7.32774      -26.44927       -1.42060
N         -6.31477      -26.05123       -1.83673
C         -8.63037      -26.98822        0.52759
N         -8.72993      -26.97550        1.68015
H          4.85382       -4.07872        4.16458
H          4.00468       -7.98531        1.20548
H          2.57818       -3.22492        3.71500
H          1.79677       -7.01220        0.53603
H         -2.88387       -3.80112        2.73762
H         -4.05289       -4.71346       -0.33393
H         -6.60734      -10.35229       -1.53841
H         -6.13102      -13.10949        2.32138
H         -7.23342      -19.06824        0.50971
H         -6.05517      -19.39801       -4.10631
H         -7.59159      -25.24527       -5.90106
H         -9.28230      -27.22598       -5.19168
H        -11.49790      -31.34573       -2.92831
H        -12.41324      -29.48404        2.25357
H        -12.72126      -32.89086       -1.35748
H        -11.05345      -28.03551        0.80116
