87

C          4.08770        4.86471        7.47734
S          3.34237        5.33046        6.01737
C          4.59103        4.61654        5.04544
C          5.58572        4.09537        5.86689
C          5.28110        4.21882        7.25917
C          6.10525        3.74081        8.33007
N          6.77375        3.34665        9.18989
C          6.80263        3.49769        5.39814
N          7.79183        3.00690        5.05269
C          4.41610        4.68803        3.62735
C          4.91008        3.77492        2.77644
C          4.70201        3.83707        1.33948
C          5.69661        3.84593        0.41365
O          5.42849        3.90010       -0.96145
C          4.12531        3.90868       -1.30654
C          3.09547        3.88849       -0.34817
C          1.84542        3.87900       -0.90783
S          1.94571        3.91635       -2.62774
C          3.66662        3.93596       -2.59761
O          3.34653        3.86961        0.98108
C          7.11209        3.80434        0.73332
C          8.10347        3.97275       -0.15514
C          9.47868        3.90642        0.21362
S         10.58234        3.34636       -0.96699
C         11.93653        3.44059        0.08042
C         11.55401        3.91624        1.32638
C         10.14994        4.25038        1.37852
C          9.54467        4.89028        2.59916
C         10.58543        5.51937        3.53282
C         11.07918        6.86637        2.99821
O         10.66188        7.35845        1.94950
C         12.03601        7.64655        3.86207
C         11.71947        4.51753        3.78933
C         12.47056        4.13366        2.50673
C         13.25041        3.10853       -0.37108
C         13.48491        2.19896       -1.33105
C         14.80023        1.85766       -1.74254
S         15.07550        1.29378       -3.35964
C         16.76619        1.09242       -3.12381
C         17.11578        1.41982       -1.84137
C         16.00050        1.82230       -1.10639
C         16.39661        2.05046        0.23789
C         17.76846        1.86950        0.45215
C         18.47373        2.00936        1.76346
S         18.69782        1.39983       -0.96494
C         17.63307        0.62069       -4.13956
C         18.26076        1.44425       -4.99266
C         19.16291        1.01707       -6.03776
C         19.79896        2.03102       -6.64575
C         19.45148        3.34010       -6.11539
S         18.12193        3.18270       -4.97091
C         20.06809        4.51190       -6.36183
C         21.23478        4.72422       -7.20054
C         21.76091        5.95428       -7.09284
C         21.03705        6.80502       -6.18267
S         19.60434        6.03159       -5.58393
C         21.39328        8.03165       -5.79492
H          3.61814        5.10117        8.42444
H          3.81730        5.50752        3.22743
H          5.48790        2.91884        3.11261
H          0.88587        3.85137       -0.41211
H          4.24065        3.96206       -3.51360
H          7.35798        3.61172        1.77100
H          7.87729        4.12420       -1.20813
H          9.02751        4.10004        3.15055
H          8.79424        5.63278        2.30824
H         10.08308        5.74394        4.48348
H         12.34145        8.55457        3.33366
H         12.93193        7.06034        4.07157
H         11.53643        7.92872        4.79166
H         11.28573        3.61056        4.23392
H         12.42972        4.90177        4.52974
H         13.04866        3.22153        2.70150
H         13.18779        4.92476        2.25801
H         14.07080        3.63334        0.10854
H         12.66602        1.69303       -1.83523
H         15.72363        2.31289        1.04467
H         19.52918        2.26871        1.64140
H         18.40503        1.07004        2.32202
H         18.00518        2.79513        2.36686
H         17.77752       -0.45318       -4.20621
H         19.31335       -0.02496       -6.28611
H         20.51835        1.88556       -7.43904
H         21.66368        3.95363       -7.82486
H         22.64824        6.28447       -7.61416
H         22.29986        8.50477       -6.15106
H         20.78637        8.59000       -5.08702
