76

C         -0.95521       -2.14216        3.59347
C         -1.85325       -2.12142        2.52042
C         -1.59968       -1.20432        1.48789
C         -0.51620       -0.32705        1.51024
C          0.37582       -0.35875        2.60657
C          0.14006       -1.26754        3.62782
N          1.44108        0.46621        2.67417
C          1.60458        1.32092        1.64073
C          0.73551        1.35384        0.57079
N         -0.33210        0.53142        0.48731
C         -3.00410       -3.03891        2.46920
C         -4.20485       -2.87850        1.89167
C         -4.98793       -4.05160        2.11487
C         -4.18194       -4.99188        2.90085
O         -4.49282       -6.09672        3.28817
N         -2.98422       -4.29028        3.07356
C         -6.15419       -3.84226        1.52356
O         -6.24519       -2.57312        0.88783
C         -5.02760       -1.94363        1.11709
O         -4.71834       -0.83131        0.73763
C         -7.33325       -4.70005        1.42727
C         -7.58540       -5.57331        0.35733
C         -8.80377       -6.34616        0.26759
N         -8.96377       -7.17826       -0.79101
C         -8.01310       -7.23672       -1.75922
C         -6.86932       -6.48535       -1.67111
N         -6.64564       -5.65799       -0.61332
C         -5.83910       -6.51943       -2.67259
N         -5.02147       -6.56348       -3.48711
C         -8.30004       -8.10595       -2.86623
N         -8.51899       -8.78801       -3.77844
C         -9.84401       -6.24831        1.23488
C         -9.63595       -5.32842        2.29834
C         -8.34320       -4.56459        2.41351
N         -8.29383       -3.77579        3.50088
S         -9.74127       -3.94369        4.28666
N        -10.51163       -4.98438        3.25729
C        -11.12596       -6.96227        1.12622
O        -11.58941       -7.03738       -0.16339
C        -12.78439       -7.70784       -0.20169
C        -13.09003       -8.05121        1.10005
C        -12.04988       -7.57647        1.96512
C        -12.09853       -7.79395        3.43496
F        -11.02515       -7.34839        4.12434
F        -13.20347       -7.21571        3.97806
F        -12.19556       -9.12246        3.71908
C        -13.54718       -7.96843       -1.37263
C        -13.07270       -7.71423       -2.60110
C        -13.84989       -7.97608       -3.80049
C        -13.45181       -7.78514       -5.06767
C        -12.17912       -7.28887       -5.52353
C        -12.07354       -7.21974       -6.85575
C        -13.26363       -7.64233       -7.57441
S        -14.50259       -8.15074       -6.42697
C        -13.40354       -7.63510       -8.91520
C        -12.38597       -7.20875       -9.86166
C        -12.76143       -7.28275      -11.14440
C        -14.10294       -7.77379      -11.31278
S        -14.85839       -8.13230       -9.78356
C        -14.71085       -7.94138      -12.48971
H         -1.09177       -2.82018        4.43285
H         -2.24957       -1.15041        0.61752
H          0.82526       -1.29192        4.47269
H          2.46176        1.98239        1.69713
H          0.87226        2.04312       -0.25455
H         -2.19544       -4.68749        3.56442
H        -13.97706       -8.59088        1.40987
H        -14.53903       -8.39158       -1.23987
H        -12.07286       -7.30476       -2.71652
H        -14.85340       -8.36828       -3.63406
H        -11.37732       -7.00408       -4.85889
H        -11.17506       -6.87574       -7.34589
H        -11.40752       -6.85936       -9.56597
H        -12.12811       -7.00396      -11.97579
H        -14.20883       -7.70967      -13.42290
H        -15.72731       -8.31579      -12.55378
