87

C          0.39196      -18.26528        1.47476
O          0.67633      -16.94624        1.72228
C         -0.52686      -16.39907        2.04931
C         -1.04912      -15.16450        2.44334
C         -0.29072      -13.95534        2.64027
O         -0.76425      -12.86581        2.94063
N          1.06078      -14.06385        2.46039
C         -2.41033      -15.44802        2.58583
O         -2.67236      -16.78239        2.30548
C         -1.47729      -17.33155        1.98738
C         -0.94397      -18.57284        1.63447
C         -3.46580      -14.57446        3.02630
O         -3.18892      -13.55319        3.88382
C         -4.32378      -12.87358        4.20687
C         -5.36599      -13.47886        3.52655
C         -4.83047      -14.57460        2.76950
C         -5.64490      -15.44898        1.89001
F         -5.01610      -16.55252        1.43038
F         -6.76011      -15.88477        2.54001
F         -6.08357      -14.76877        0.79966
C         -4.28242      -11.77362        5.09762
C         -5.31612      -11.48765        5.89456
C         -5.32204      -10.42848        6.83945
O         -6.52532       -9.82527        7.11278
C         -6.37209       -8.83902        8.03691
C         -5.04067       -8.80806        8.38940
C         -4.36014       -9.83312        7.65777
C         -2.91951      -10.13293        7.86339
F         -2.43281      -11.15258        7.12118
F         -2.15238       -9.04445        7.58522
F         -2.66704      -10.45132        9.16142
C         -7.43417       -8.04015        8.52054
C         -8.67858       -8.53385        8.59947
C         -9.74927       -7.76436        9.13607
S        -11.32979       -7.99821        8.49651
C        -11.98495       -6.65857        9.34647
C        -11.00059       -6.06109       10.11843
C         -9.77887       -6.83178       10.16728
C         -8.66301       -6.47326       11.14473
C         -8.01525       -7.68917       11.69759
N         -7.48052       -8.61701       12.14054
C         -9.10221       -5.57305       12.32958
C        -10.53187       -5.00546       12.28991
C        -11.05865       -4.76260       10.86994
O        -10.19010       -3.77768       10.27331
C        -10.55422       -3.44381        8.93674
C        -13.37228       -6.36637        9.18928
C        -13.82669       -5.60146        8.18277
C        -15.22579       -5.36155        8.02727
S        -15.92091       -4.05045        8.86737
C        -17.49113       -4.28495        8.19895
C        -17.51414       -5.42735        7.40070
C        -16.17321       -6.01353        7.24741
C        -15.89241       -7.19515        6.35983
F        -14.60838       -7.23545        5.92743
F        -16.14046       -8.36271        7.00011
F        -16.66659       -7.17781        5.24510
C        -18.72788       -5.99351        6.70423
F        -19.90288       -5.60641        7.26165
F        -18.77124       -5.62507        5.40058
F        -18.72638       -7.35085        6.73769
C        -18.55677       -3.38664        8.53081
C        -18.36008       -2.08714        8.79581
H          1.25253      -18.86083        1.19874
H          1.51713      -14.92961        2.20262
H          1.62213      -13.23869        2.61606
H         -1.43219      -19.52701        1.51701
H         -6.40276      -13.16876        3.55202
H         -3.34996      -11.22046        5.12361
H         -6.24474      -12.04823        5.81991
H         -4.60100       -8.15673        9.13480
H         -7.18099       -7.03894        8.84639
H         -8.89692       -9.53496        8.22561
H         -7.91159       -5.90414       10.58028
H         -8.39209       -4.73553       12.38747
H         -8.97961       -6.09519       13.28963
H        -10.53665       -4.06760       12.85938
H        -11.19881       -5.70308       12.81131
H        -12.07315       -4.35404       10.92214
H         -9.95780       -2.58395        8.62007
H        -11.61358       -3.18028        8.87560
H        -10.32835       -4.26966        8.25422
H        -14.05857       -6.83277        9.89317
H        -13.14950       -5.14369        7.46597
H        -19.57947       -3.75841        8.54134
H        -17.38003       -1.62048        8.78025
H        -19.19673       -1.43742        9.03345
