93

C         -5.85804      -14.16148        3.87701
C         -6.98853      -14.92573        3.61979
C         -8.05522      -14.36195        2.87310
C         -9.22228      -15.16328        2.63214
N        -10.16185      -15.80134        2.43206
C         -7.98966      -13.04048        2.39085
C         -9.04667      -12.43914        1.63604
N         -9.87772      -11.91393        1.01146
C         -6.86933      -12.26411        2.66624
C         -5.85425      -12.84477        3.41376
C         -4.70309      -12.11411        3.90882
O         -4.51026      -10.95965        3.61072
C         -3.96831      -13.04292        4.83709
C         -4.58025      -14.38829        4.61611
C         -4.00303      -15.60143        4.83337
C         -4.61051      -16.82052        4.40687
N         -5.12141      -17.79235        4.03438
C         -2.70663      -15.74269        5.40583
N         -1.64934      -15.84767        5.87465
C         -3.07927      -12.65078        5.76811
C         -2.58056      -11.31663        5.91569
C         -2.20421      -10.37053        4.97109
C         -1.90528       -9.05600        5.48370
C         -1.63327       -7.76138        4.90771
C         -1.33756       -6.66873        5.79608
C         -1.35041       -6.96640        7.16275
N         -1.60694       -8.15838        7.70791
C         -1.88444       -9.15387        6.86594
S         -2.27326      -10.68881        7.48129
S         -1.04170       -5.65393        8.20410
C         -0.86734       -4.62436        6.88939
C         -1.04398       -5.26364        5.69153
F         -0.97588       -4.59276        4.57517
F         -0.61660       -3.34568        7.00272
C         -1.73595       -7.56591        3.41178
C         -1.03112       -6.78778        2.49942
C         -1.53875       -6.86318        1.13023
N         -1.02811       -6.13943        0.09344
C         -0.01144       -5.32034        0.47916
C          0.55726       -4.46593       -0.59327
O          0.18737       -4.51948       -1.75943
C          1.61893       -3.51151       -0.22300
C          2.12178       -3.47193        1.01091
C          1.64021       -4.37184        2.07899
O          2.20016       -4.35805        3.16791
C          0.49927       -5.26709        1.77596
N          0.03945       -6.01350        2.83374
C         -2.58139       -7.75345        0.97841
S         -2.98345       -8.39573        2.51576
C         -3.35196       -8.10680       -0.21136
C         -3.99509       -9.30418       -0.51539
C         -4.80267       -9.25673       -1.72398
C         -5.68766      -10.16431       -2.38383
C         -6.46713       -9.71863       -3.48154
C         -6.15573       -8.45269       -3.97387
N         -5.27004       -7.60606       -3.43417
C         -4.65787       -8.01092       -2.31267
S         -3.63106       -6.96610       -1.46446
S         -7.01611       -8.01704       -5.38087
C         -7.91725       -9.43926       -5.30644
C         -7.56818      -10.22162       -4.24161
F         -8.19278      -11.33604       -3.97203
F         -8.85098       -9.76216       -6.16281
C         -5.80620      -11.52814       -1.81547
C         -6.05685      -12.75529       -2.30902
C         -6.24787      -13.85275       -1.28956
O         -5.92896      -13.85893       -0.11705
C         -6.98258      -14.92444       -1.97838
C         -7.46510      -16.08850       -1.39773
C         -8.23870      -16.94634       -2.18970
C         -8.54411      -16.58947       -3.52018
C         -8.02208      -15.40226       -4.08443
C         -7.19172      -14.58576       -3.32275
C         -6.38959      -13.35407       -3.61296
C         -5.87169      -13.05412       -4.83076
C         -4.84773      -12.08144       -4.99151
N         -3.99873      -11.29589       -5.12372
C         -6.25359      -13.73122       -6.02415
N         -6.59639      -14.28881       -6.98283
C         -9.38715      -17.42287       -4.33598
N        -10.06693      -18.08132       -5.00372
C         -8.69401      -18.18386       -1.61833
N         -9.02225      -19.18823       -1.14493
H         -7.09528      -15.94066        3.99817
H         -6.78458      -11.23011        2.34031
H         -2.73297      -13.35491        6.52090
H         -2.23345      -10.60804        3.91863
H          1.97857       -2.85993       -1.01318
H          2.91907       -2.78811        1.28150
H         -3.94166      -10.17044        0.13299
H         -5.65014      -11.49625       -0.73405
H         -7.24164      -16.32200       -0.35863
H         -8.29173      -15.15206       -5.10854
