85

C         -7.39954      -11.77705       -4.12662
O         -7.24324      -10.73007       -3.51005
N         -8.64663      -12.05183       -4.71149
C         -9.64134      -11.12763       -4.94930
N        -10.71527      -11.66702       -5.48316
C        -10.44637      -13.00180       -5.56604
C         -9.18081      -13.26774       -5.10233
N         -6.33464      -12.67237       -4.27532
C         -6.10997      -13.45279       -5.40538
C         -4.96295      -14.15821       -5.17991
N         -4.44948      -13.82392       -3.97177
C         -5.23366      -12.89158       -3.44624
C         -4.88282      -12.30517       -2.16721
C         -5.64168      -11.73043       -1.14065
C         -4.82077      -11.33935       -0.04284
C         -3.49991      -11.64059       -0.27827
S         -3.18193      -12.34394       -1.73722
C         -2.71660      -11.21875        0.81183
C         -3.53339      -10.64170        1.75267
C         -4.91954      -10.68797        1.27467
C         -6.01704      -10.22048        1.90053
C         -7.30770      -10.35507        1.32129
N         -8.35568      -10.48073        0.85127
C         -5.94585       -9.57898        3.16756
N         -5.88936       -9.05463        4.20342
C         -2.78495      -10.14570        2.84432
C         -1.41122      -10.33327        2.64955
S         -1.09839      -11.19432        1.16645
C         -0.26465       -9.78454        3.39910
C          0.92393      -10.48562        3.70547
C          2.09769       -9.80849        4.21559
N          3.21345      -10.51795        4.49754
C          3.21238      -11.84508        4.25877
C          2.10218      -12.48717        3.76817
N          0.95541      -11.82346        3.50155
F          2.13301      -13.80797        3.54278
F          4.33614      -12.52975        4.51365
C          2.12933       -8.40992        4.41971
C          0.90730       -7.70010        4.24035
C         -0.31102       -8.40066        3.72850
N         -1.36341       -7.57236        3.59480
S         -0.88995       -6.07561        4.10019
N          0.69283       -6.38703        4.44317
C          3.34721       -7.61763        4.69530
C          3.50849       -6.46708        5.47648
C          4.77330       -5.87682        5.27196
C          5.55288       -6.64021        4.43717
S          4.81430       -7.98839        3.82321
C          6.77220       -5.97492        4.21426
C          6.75214       -4.76562        4.86858
C          5.50150       -4.65748        5.62755
C          5.11375       -3.67472        6.46380
C          3.85602       -3.70584        7.12201
N          2.82423       -3.72616        7.65867
C          5.95146       -2.56026        6.73902
N          6.63109       -1.64620        6.95988
C          7.88033       -3.97960        4.52706
C          8.75388       -4.67869        3.69111
S          8.13722       -6.27830        3.33221
C          9.98575       -4.28566        3.04328
N         10.25598       -4.74528        1.83050
C         11.51282       -4.34999        1.52566
C         12.02506       -3.59883        2.54630
N         11.03333       -3.48126        3.51274
C         11.13523       -2.81599        4.74827
O         10.32712       -3.05861        5.63658
N         12.17478       -1.91918        5.04664
C         12.54240       -1.56823        6.33146
N         13.61768       -0.81434        6.36297
C         13.92298       -0.57456        5.05666
C         13.01462       -1.18915        4.22729
H         -9.51143      -10.07460       -4.73196
H        -11.17971      -13.70671       -5.94013
H         -8.65752      -14.20643       -4.98715
H         -6.74524      -13.40883       -6.27934
H         -4.46703      -14.86701       -5.83116
H         -6.71664      -11.60983       -1.19061
H         -3.18019       -9.60141        3.69420
H          2.70516       -6.05168        6.07299
H          8.04536       -2.95546        4.83560
H         11.99728       -4.65551        0.60666
H         13.02011       -3.20161        2.66288
H         12.00520       -1.93294        7.19898
H         14.76269        0.05142        4.77935
H         12.90869       -1.14066        3.15397
