93

C         -0.60259        4.02451        3.85623
C          0.62788        4.18135        3.31237
C          1.82313        4.11570        4.08789
N          2.79067        4.06885        4.72389
C          0.82245        4.33506        1.91046
N          0.97597        4.46236        0.76557
C         -0.90138        3.67335        5.27706
C         -2.16191        3.07550        5.31196
C         -2.80857        2.66640        6.46906
C         -2.13925        2.87593        7.69189
C         -0.86168        3.45514        7.67213
C         -0.22223        3.86623        6.47228
S         -0.22346        3.59518        9.27024
C         -1.62818        2.93677        9.97465
C         -2.57089        2.60351        9.03231
C         -2.72474        3.00953        3.96398
O         -3.60569        2.25631        3.61444
C         -1.89857        3.93078        3.13689
C         -2.34771        4.64850        2.09369
C         -3.67452        4.64320        1.54116
C         -4.94838        4.38738        2.05592
C         -6.02460        4.36149        1.07380
C         -7.43147        4.00422        1.06591
C         -8.11147        4.05509       -0.20513
C         -7.44228        4.65957       -1.26327
N         -6.17039        5.05601       -1.24895
C         -5.49254        4.83135       -0.12078
S         -3.83044        5.13499       -0.09823
S         -8.37912        4.89579       -2.66657
C         -9.65481        4.03338       -1.98549
C         -9.37094        3.59023       -0.72451
F        -10.18817        2.82451       -0.05483
F        -10.78051        3.79220       -2.60511
C         -8.19478        3.64073        2.32845
C         -9.51500        4.08501        2.64345
C        -10.21685        3.75933        3.88480
N        -11.50574        4.12320        4.04064
C        -12.15394        4.68709        3.00610
C        -11.49254        5.02755        1.85749
N        -10.16636        4.80505        1.70750
F        -12.16446        5.53917        0.81677
F        -13.47576        4.87651        3.11677
C         -9.62450        3.04055        4.94613
C         -8.35098        2.49657        4.64924
C         -7.66330        2.75447        3.31237
N         -6.55535        2.01271        3.18301
S         -6.33620        1.16332        4.58052
N         -7.62647        1.70173        5.45727
C        -10.27373        2.73652        6.26024
C         -9.77647        2.74672        7.56770
C        -10.77183        2.46047        8.59600
C        -10.77852        2.37372       10.02233
C        -11.97472        2.03996       10.71535
C        -13.12441        1.95089        9.93833
N        -13.16106        2.02499        8.60398
C        -11.99432        2.24243        7.97950
S        -11.91816        2.22374        6.29215
S        -14.56126        1.74258       10.83374
C        -13.68562        1.62523       12.26911
C        -12.33866        1.72214       12.06301
F        -11.48403        1.56788       13.03759
F        -14.22412        1.45151       13.44775
C         -9.51032        2.57000       10.76173
C         -9.25303        3.16328       11.94514
C        -10.05444        3.86362       12.96406
C        -11.02367        4.78947       12.76659
C        -11.69912        5.44725       13.83802
N        -12.26706        5.96839       14.70428
C        -11.38647        5.22360       11.46330
N        -11.67434        5.58851       10.39681
C         -9.41937        3.56651       14.28026
C         -8.12792        3.09151       14.04349
C         -7.92180        2.87601       12.59535
O         -6.90224        2.49014       12.06178
C         -7.21814        2.81319       15.05885
C         -7.63816        3.01387       16.39752
C         -8.96107        3.41223       16.63484
C         -9.87805        3.67028       15.58812
S         -9.28645        3.54473       18.32449
C         -7.68245        3.15323       18.74045
C         -6.91627        2.87398       17.63268
H         -3.80381        2.23508        6.43257
H          0.75313        4.33617        6.53119
H         -1.70162        2.82530       11.04784
H         -3.53538        2.17937        9.28805
H         -1.65461        5.33020        1.60293
H         -5.10122        4.13536        3.09460
H         -8.74232        2.97881        7.79496
H         -8.66906        2.08070       10.26224
H         -6.21752        2.45841       14.82914
H        -10.89654        3.94478       15.84021
H         -7.37945        3.13837       19.77895
H         -5.87214        2.59302       17.70022
