97

C         -3.34378        1.79941        4.35239
C         -2.61955        1.85343        5.54185
F         -2.63700        2.97968        6.26734
C         -1.89462        0.75471        5.98113
F         -1.22279        0.80627        7.13912
C         -1.85784       -0.41035        5.22665
C         -2.56387       -0.48127        4.01887
C         -3.34544        0.63019        3.57686
C         -4.12012        0.53552        2.39468
C         -4.10475       -0.63916        1.65441
C         -3.27921       -1.68147        2.09817
C         -2.51903       -1.64321        3.25339
C         -3.41644       -2.84721        1.22933
O         -2.63254       -3.76957        1.16499
C         -4.66277       -2.59908        0.43578
C         -4.86370       -1.12954        0.46045
C         -5.49241       -0.37581       -0.47374
C         -6.09028       -0.94867       -1.63288
N         -6.58802       -1.42501       -2.56954
C         -5.55342        1.04224       -0.39600
N         -5.60337        2.20074       -0.32062
C         -5.50525       -3.56833        0.03522
C         -5.32790       -4.95412        0.33959
C         -4.81745       -5.56569        1.48963
C         -4.78706       -6.96264        1.37257
C         -5.36121       -7.37708        0.19563
S         -5.88545       -6.15450       -0.79828
C         -5.38247       -8.78479        0.18393
C         -4.81793       -9.25437        1.35046
C         -4.36751       -8.12085        2.15579
C         -3.69741       -8.13335        3.32502
C         -3.33882       -9.35069        3.96487
N         -3.05083      -10.34464        4.49009
C         -3.30774       -6.93165        3.98169
N         -3.00508       -5.95355        4.52964
C         -4.88080      -10.66037        1.42670
C         -5.47935      -11.19527        0.28366
S         -5.94650       -9.95423       -0.84371
C         -5.76186      -12.58832       -0.03769
N         -5.79169      -12.93904       -1.33430
C         -6.04614      -14.24350       -1.56017
C         -6.26480      -15.16380       -0.55176
N         -6.24097      -14.75052        0.73136
N         -5.96936      -13.43572        0.99582
C         -6.54226      -16.58039       -0.77202
C         -7.30143      -17.46027        0.00524
C         -7.36734      -18.73484       -0.59647
C         -6.63605      -18.78139       -1.76273
S         -5.86911      -17.37224       -2.16768
C         -6.81073      -20.03898       -2.37074
C         -7.67694      -20.77721       -1.60171
C         -8.01305      -20.02943       -0.38871
C         -8.69549      -20.46872        0.68751
C         -9.18070      -21.80477        0.74516
N         -9.54897      -22.90647        0.73968
C         -8.92050      -19.64370        1.82336
N         -9.11338      -18.96953        2.74593
C         -8.05273      -21.96413       -2.25855
C         -7.33326      -22.15113       -3.44451
S         -6.30844      -20.77504       -3.77030
C         -7.37851      -23.20657       -4.40481
C         -7.69123      -24.47797       -4.11742
C         -8.10948      -25.38876       -5.23799
O         -7.87518      -25.27250       -6.42180
C         -8.95923      -26.41828       -4.60210
C         -9.65938      -27.43312       -5.23311
C        -10.46283      -28.26827       -4.44161
C        -10.60752      -27.99836       -3.04539
C        -11.43925      -28.81175       -2.26508
C        -12.07603      -29.90657       -2.83664
C        -11.90967      -30.19355       -4.18413
C        -11.12353      -29.37626       -4.99263
F        -12.50069      -31.27030       -4.71927
F        -12.83924      -30.69374       -2.06672
C         -9.89205      -26.94933       -2.44657
C         -9.01044      -26.20860       -3.21527
C         -7.99451      -25.18524       -2.87070
C         -7.26626      -25.17477       -1.72643
C         -6.04684      -24.44156       -1.61076
N         -5.04410      -23.86853       -1.50875
C         -7.59581      -25.97962       -0.59845
N         -7.87866      -26.63830        0.31397
H         -3.90446        2.67972        4.04915
H         -1.28342       -1.25567        5.59780
H         -4.74317        1.37961        2.11322
H         -1.94621       -2.51701        3.55607
H         -6.43145       -3.32250       -0.47718
H         -4.46274       -5.00782        2.34577
H         -4.53271      -11.28297        2.24343
H         -6.07684      -14.51646       -2.60950
H         -7.79725      -17.14834        0.91863
H         -8.81201      -22.65359       -1.91461
H         -7.23323      -22.92701       -5.44984
H         -9.56483      -27.57485       -6.30681
H        -11.58098      -28.62437       -1.20339
H        -11.01865      -29.63294       -6.04338
H        -10.01983      -26.75246       -1.38528
